216
14.869 14.869 14.869
 Si         2.3836300813        2.8610752975        2.1039970903
  O         3.6341830287        5.8562579202        3.6344252497
  O         3.2372224202        4.1485945607        1.7287271709
 Si         3.9915022722        5.5045245988        2.1067802239
  O         2.9784718224        2.0688464466        3.3922626708
  O         5.5301874008        5.2077534783        1.7287161302
  O         3.2121876273        6.2739609164        6.2117080230
  O         2.7236396043        1.9233977925        6.0550094653
 Si         2.3398475559        1.2689569436        4.6358159017
  O         0.9058128540        3.3873076138        2.4015127569
  O         3.5540879483        6.7748854778        1.2292863233
 Si         6.7193829990        4.1678730404        1.4279607384
  O         2.4713573776        1.8920901094        0.8262041413
  O         0.7382167091        1.3447430837        4.4567581922
 Si         7.0222414651        0.6502966686        5.9615618142
  O         6.8643303715        1.9787978085        5.0267299698
 Si         3.5748055538        6.9565213709        4.8102477553
 Si         3.0629117952        0.5248704250        0.2247198365
  O         7.0209906570        3.5450847642        2.8816939462
 Si         1.8703036928        2.6353177627        7.2363038193
  O         0.3272253371        2.3086685958        7.0115167620
  O         6.4430891020        2.9847114968        0.3500023840
  O         2.1173615686        4.2066855145        7.2490546164
  O         6.1257961912        0.7445844804        7.2658778930
  O         4.4697203453        0.1656184554        0.9100735006
  O         7.9278156536        5.0334464167        0.8155748333
 Si         7.8360460887        2.5948848530        3.8680178954
  O        14.1144967423        5.3818694378        1.9804238450
  O         8.5917346993        0.5764619273        6.3680482876
  O         8.4944776881        1.3753068596        3.0621414596
 Si        14.3100404889        3.9408262201        2.7050635520
  O        13.0618035964        3.7016181188        6.7781879929
  O        14.0407701833        4.1302493146        4.2955864538
  O        13.3071406469        2.8063698615        2.1498651805
  O         8.6767870309        5.3769247294        6.3396480865
  O        11.4947655696        4.4619183830        4.9555781982
 Si        10.6218917499        3.1107246212        4.7096667530
  O        11.1367190371        2.3309626567        3.4085080952
 Si        13.0448707705        4.6300382534        5.4752734608
  O         9.0689543373        3.4610642506        4.4629652803
 Si        12.4136505306        1.6224692930        2.7819493321
  O        11.9764603045        0.5818748257        1.6508452510
  O        13.5430397658        6.0995215012        5.9462215748
  O        10.7479045907        2.0706809439        5.9407765492
 Si         8.8781708795        6.7986490406        5.5060038081
  O        13.1529141060        0.7493130990        3.9407350868
 Si        14.1096136355        6.9377765347        2.4189222467
 Si        10.7038028692        0.2869825689        0.7331776845
 Si         8.3484761177        6.4568264386        0.1891064865
  O         9.3215826840        6.9946961263        3.9169385744
 Si         9.7019853331        1.5418054947        7.0443105273
  O        13.1384065046        7.1024648065        3.7023474258
 Si        14.6571101447        0.2006725792        3.8550256699
  O         8.6030521527        7.4361561056        1.4175406856
  O         5.0428441368        7.5127446592        4.9500212970
  O         6.9175209812       14.5493298623        1.8905213222
  O         0.7441880090        7.3646374994        2.8101375281
  O         5.8661365940       12.9118424659        0.2471063552
  O         2.0532470444       14.1891649717        0.5806811669
  O         2.7066665229       14.5581333145        4.6337181969
 Si         5.9546513665       14.4897522337        0.5892628002
  O         2.5741788418        8.1806395610        4.4530524134
  O         5.7863311714        9.2553042441        6.6858842319
 Si         1.1244106172        8.5442767855        3.8649536311
  O         0.9931648766        9.9970045067        3.1360722401
  O         1.8747018265       12.7400206591        6.3764196721
 Si         6.2261873192        8.4872431499        5.3237469872
 Si         1.5557275142       11.3788873433        2.4431508197
  O         6.4473061987        9.3363482410        3.9594054948
  O         2.1389757338       12.2174326524        3.7122313827
 Si         1.7354070798       13.2690391033        4.8648023741
  O         2.7263766195       10.9813406901        1.4040098142
  O         0.5095016104       12.3590097381        1.5942490155
  O         6.6166602862       14.1313417014        5.2022006272
 Si         0.5359286760       13.9202047580        1.0584267071
  O         7.0169501788       10.8135147246        1.5812526736
  O         0.1710957528       13.7091761396        4.6337655101
 Si         6.2724101512       11.3411554607        0.2226101583
 Si         7.4137939577       10.3228443155        3.0967338943
  O         0.0786123162        8.3496028774        5.1091098503
  O         0.1675576758       14.8683313255        2.3049863552
  O         7.2932659893       11.6436021526        4.0367634783
  O         4.9485060956       10.4221819538        0.0868279191
 Si         3.3309894379       10.3544324362        0.0379377440
  O        10.9746029610        8.0981567477        1.9860480400
 Si        13.5494880837        7.5392893221        5.1951891420
 Si         8.3678601511       14.7229060793        2.5767083842
 Si        11.3161051225        8.1563230317        6.9594979102
  O         8.8375070708        9.5002904574        2.9799682787
  O         7.5090238154        7.6033309930        5.6935894481
  O        10.0100519698        7.5886820411        6.2762471567
 Si         9.4659129190        8.0166910464        2.6347237481
 Si         7.7080920004       12.9622506600        4.8515264571
  O        13.5626148675        8.0656200964        1.4096329954
  O         9.5002617524       14.4448043967        1.4952177357
  O         8.6800691565       13.7192238719        3.8011240706
 Si        12.0750344507        8.1907345264        0.7911690498
  O        12.4645772713        8.4998925421        5.8754956033
  O         8.2582394638       12.4800509688        6.2874367143
 Si         5.5945565241        4.0802459213        8.9801381910
  O         5.5346863608        4.4584260648       10.5506389092
 Si         5.3337730903        4.2067619966       12.1299812376
  O         3.8049831815        4.2256894443       12.6420054057
  O         1.2467556977        4.1301396389       13.0447576603
 Si         2.4659699584        5.1079056890       12.6931889679
  O         6.1123432153        5.4472268151       12.8118817925
  O         5.8788252349        2.7827755603       12.6536576382
  O         2.4719988094        6.2846585813       13.7962431652
  O         2.3887383333        5.7775388138       11.2333272674
  O         2.3825662394        6.3911080456        8.6873583152
 Si         1.4667573045        6.1875292598        9.9902175043
 Si         6.7445944737        2.1349417139       13.8588268176
 Si         5.5134770223        0.9245307680        8.7299898443
  O         5.3726574082        2.4866136429        9.0027951401
  O         2.2377142712        2.0582020942        8.6878364053
  O         3.1514092947        0.6638391233       13.4796960075
  O         4.4539000025        4.8750555898        8.1744241998
  O         2.6399832362        0.6598760262       10.8266201387
 Si         6.1125888832        7.0299146399       13.1230458523
 Si         2.6120051246        0.5908575759        9.2227010959
  O         0.3938739734        5.0309101158        9.6812451644
  O         6.9442473374        4.4569000832        8.1817502902
  O         6.4498030523        0.5738702399       14.2238994739
  O         4.0658265522        0.2405869296        8.6696219103
  O         7.2611328761        7.2643197145       14.2048625723
  O         0.7322053348        0.3363146715       12.5426809280
 Si         3.0768852159        5.4486177307        7.5746440742
  O         0.6584869735        7.5054649287       10.4114224034
 Si         3.3812977390        7.3410289985       14.6034408887
 Si        14.5556765673        3.7596788545       13.1232705176
  O        14.4375494116        2.3031468438       13.8452592388
  O        12.9607161820        1.1564472752        7.6878496511
  O        10.4908434980        0.6622473115        8.1597153861
  O        13.9498031322        3.7868225752       11.6207168117
 Si        14.3588402703        0.6941458798       13.4965631175
  O        13.8013639479        2.9719829514        9.1784207829
 Si         9.8349245834        2.2695173076       13.5171443922
 Si        13.9027772020        4.2708892194       10.0864733880
  O         9.4078252994        4.9374471908        8.8963483614
 Si         9.2542145281        5.8535058631       10.1998865595
  O         9.2602486305        5.1134298490       11.6340767022
  O        10.5159248143        6.8450222648       10.1526211521
  O        10.5729473602        1.4865050373       12.3178612122
  O        12.6323952430        5.2084533070        9.7509465056
 Si        10.1974091524        5.2188207905       12.9442405215
  O         8.2513427854        2.2301123815       13.3070467144
 Si        11.9759067189        6.6587382925        9.4953421358
  O        10.3343656134        3.7806781289       13.6155582981
  O        11.6598804602        5.7075261614       12.4793357118
 Si        12.8911713852        6.2425392550       13.3827510397
  O        13.7819477714        4.9717447545       13.8782045013
  O         7.8482779653        6.6009815781       10.0766589104
  O        12.9861266021        0.4995481846       12.7043137014
  O         9.5773725662        6.2041334880       14.0502948135
 Si        11.6676491134        0.4181308826       11.7920035573
 Si        12.0035373633        0.3384714126        8.6941464892
  O        11.9825150310        0.7474155036       10.2542548867
  O        11.8905707322        7.0180231795        7.9363797968
 Si         8.4758752485        4.4360267295        7.6710135215
 Si        13.7515139796        2.5423222639        7.6393944771
  O        12.1418441525        6.9487635632       14.6205197855
  O         8.9183797145        2.8849035882        7.5138250474
  O        10.1683766468        1.6484696802       14.9558735413
  O        13.8115044468        7.2640668810       12.4960802798
  O         4.7424404467        7.5017961179       13.7811262376
  O         6.3469955869       15.0264052130        9.8983512636
 Si         2.2825564158       14.9101124644       12.2666127042
  O         6.3570038839        7.9244989525       11.8059353116
 Si         1.5593968559       12.8483142626        7.9660837597
  O         1.6177595523       14.3540575985        8.5858943282
  O         5.0580606961       12.7312393851        9.8275589289
 Si         2.3871350980       11.7548640025       12.2134978983
  O         3.3043559823       11.1439943143       11.0166096219
  O         2.5849658267       13.3428959025       12.2113795484
 Si         3.9699030176       11.5620999720        9.5934292747
  O         4.7964951011       10.4072163438        8.8319757298
  O         2.8179361703       11.1616387270       13.6288438722
  O         2.7196003219       11.9869092328        8.6731278212
  O         0.8136573682       11.4889781469       12.0755254326
 Si         6.5060826904       13.4154387963       10.0706207924
 Si         6.1228487698        9.7408722202        8.1872531426
  O         6.5333611831        8.6021143320        9.2531686931
  O         6.9487733192       12.9628977898       11.5648304890
  O         7.1763637740       11.2474926371       13.7250359800
  O         0.0566697176       12.3164080267        8.2617916070
  O         2.8028337019        8.8365273319       14.7222577303
  O         7.4341217653       10.6706080967        8.0218938967
 Si         7.3291454901        8.0446555427       10.5288484917
 Si         8.2728717324       12.0391346006        7.8435064174
  O         8.9097509298       11.2620611332       11.7473027130
  O         7.5953955150       13.0456765911        8.9182208299
  O        12.6320280093       13.7229407928        8.6744502688
  O        13.1420593481       10.9033830036       12.8822384679
  O        14.3652268041        9.5851908950       11.0790439339
  O        11.0613686607       13.7840263450       11.9662392697
  O        11.1530829348       14.1445822703       14.4654683359
  O        11.9043543775        9.5770386290       14.8609103655
  O        10.8151417412        9.4859034643        7.6667313684
  O        14.4520687906       14.4690559110       14.7165827611
 Si        11.7284680269       10.4009586226       13.4906150240
 Si         9.7499079186        9.9518807252       11.3357534164
 Si        14.2003189177       11.0569317350       11.6641429278
  O        13.7001239416       12.1383142207       10.5690114057
 Si         7.9152801125       12.1870106322       12.6153550436
 Si        14.1587179396        8.0145957196       11.0833769978
  O        10.8176487050        9.5060981525       12.4778417737
  O        10.8964867377       11.7295689523       13.7884192590
  O         8.6548374963        8.8433938516       10.9812543733
  O         8.8517365328       13.2852130776       13.3714916302
  O        12.8932643165        7.7733633917       10.1547032807
  O         9.8409818734       11.8756537290        8.1811581502
  O        12.4800797480       11.2378714921        8.4251626836
 Si        10.9523267200       10.7743742590        8.5826195396
 Si        10.4759388367       13.2094111243       13.3672307749
  O        10.6632268086       10.3283535917       10.0871681401
 Si        13.4693062619       12.3813833552        8.9791965122
