216
15.095 15.095 15.095
 Si         6.3221680205        1.4036101001        3.4107732868
 Si         3.9155935550        5.5470710302        6.1706872426
  O         4.2532687838        4.7963281453        4.7915857531
 Si         4.7901996354        4.1939905327        3.3985476145
  O         5.9783207794        5.0245591561        2.7479351241
  O         3.6097969332        4.4051914879        2.3511599426
  O         5.3480036757        2.6823983421        3.5402235104
 Si         2.4297220490        4.0015003941        1.3648708770
  O         1.4956228782        3.0723374961        2.2700459064
  O         6.6799634632        1.0070453671        1.8840866320
  O         2.3395652372        5.4236711618        6.5212899982
  O         4.4682592514        7.0930373798        6.1359655072
 Si         0.7322519960        5.5367703946        6.7758340396
  O         1.5734365776        5.2518297830        0.8004917196
  O         0.1757691414        7.0765121391        6.6944239484
  O         7.1552246249        7.1767565129        3.3114045840
  O         5.5024738910        0.2405288376        4.1603654145
 Si         6.7873372722        1.2880826904        0.3020390459
  O         4.8051470664        4.8646608926        7.3106956458
  O         0.3964766583        1.1859421675        3.6229274265
 Si         7.4148897914        5.6819319437        2.8585381221
  O         3.0732466857        3.2912432403        0.0744920403
  O         7.4557641882        4.7962933399        6.5936743878
  O        -0.0069123577        4.8677791033        5.5022711225
 Si         0.0779243814        2.4602270134        2.6896037619
 Si         1.7247471992        6.6679888469        0.0718910288
  O         7.7827945672        1.5759038709        4.0885870088
  O         8.0981583432        5.6485967809        1.4075001996
  O        14.4575619263        2.0386989192        1.3181742316
  O         8.2562440952        4.9616229888        4.0379249247
  O        14.2385723165        3.5261333015        3.4532327585
  O        12.4800429139        1.3418498034        6.4531225868
 Si        10.9409023929        1.7115865587        6.6873258650
  O        13.8355917150        6.1183034600        3.3876033025
 Si        13.9305384027        4.8124692686        4.3632590152
 Si         8.5707236658        5.3807745332        5.5767519563
  O        10.0622901791        4.8808792004        5.9029120945
  O        12.5058513904        4.6404265083        5.1135527518
 Si        11.5564356016        5.4315338665        6.1563309425
  O        10.1452683170        1.7231468146        5.2675873175
  O        11.6982665653        7.0005988544        5.9649071659
  O         8.5741545737        6.9691812980        5.7334370864
  O        12.0993682811        6.6768782981        1.4138283875
 Si         9.0399782990        0.7083761793        4.6072573643
  O        10.1263743896        0.3243517396        0.8587796190
 Si        13.0301420540        7.2991868067        2.6150026765
 Si        11.1312321949        7.1983305817        0.1982003104
  O        10.2276887877        0.6270463029        7.6238659948
 Si        13.4126258417        0.1104958031        6.8946756620
 Si        14.2828330887        1.1318141201        0.0030822315
  O         1.3334071874        7.8690961435        1.0879685767
  O         5.3565224692       12.9740847373        0.2400822709
  O         3.4856042300       12.8285842869        6.8529972124
  O         2.4326462099        8.0127023911        7.3139164559
 Si         5.0987541661       12.9814378003        7.0204221343
  O         4.5519099853        8.7238458804        0.7825111904
  O         1.2637258953        9.1185236707        5.2727220935
  O         3.7712649108        9.5947694769        5.6657105591
  O         5.5921261267       13.1234860401        5.5054947595
  O         3.5149182612       13.5973353297        3.8467755628
 Si         5.0824713074       13.7937389017        4.1241047293
  O         5.8191017112       13.1287619369        2.8761230404
 Si         5.6210069272       12.1694656821        1.6144118803
 Si         2.5770817850        9.8435827765        4.5803912898
  O         4.4134139749       11.1259039107        1.8165324003
  O         1.6474069514       12.6535166102        2.1128750919
 Si         2.1181701406       12.8257751428        3.6546178984
 Si         4.4218601805        9.5429043405        2.1787717397
  O         3.1333148175        9.2734750701        3.1463888033
  O         5.7371086762        9.2878813127        3.0628084462
  O         2.2037625731       11.3944830739        4.3966846035
  O         1.0174598869       13.7629550347        4.3317425966
 Si         3.8781958249        8.4498972834        6.8049706343
 Si         1.0071393795        8.4526580978        6.7596847627
 Si         0.5785960963       11.9528932154        1.1121130255
 Si         7.2079301392        8.7628614334        3.3856848868
  O         0.5431042191       10.3826732958        1.4998965997
  O         7.0655373512       11.4742890106        1.4939893385
 Si         0.1008693018        8.9235995210        1.0034627566
  O        12.2705763938        8.1821959681        3.7431930587
  O         8.0281784478        7.9508744924        0.0778827351
 Si        10.1908584972       14.2472657034        1.9757482696
 Si         8.9398285214        9.0619386009        0.8677598206
 Si         9.0837036782       14.6345577784        7.3415027184
  O         9.6757351681       14.8730231552        3.4093246498
  O         8.8107433920        8.9608271743        7.2946741775
 Si         8.8121378388        8.5503149776        5.7627905320
  O         7.6329731225        9.2094504572        4.8774478858
  O        14.3914891358       15.0120549440        5.6597946290
  O         8.4755314029       14.9342821648        5.8757798779
  O        13.4510852403       14.9290250595        0.4836171885
 Si        14.9607512628       14.8657083227        4.1847483544
 Si        11.7406036509        8.4210325539        5.2434331985
  O         9.8216206665       13.2208892505        7.2223546145
  O        14.1747712016       12.5774895912        1.2774130490
  O        13.8407922142       14.3881990589        3.1333168246
  O        10.4440132191        8.4965554439        0.8648185011
  O         9.2756757640       12.9679764876        1.5721066822
  O        11.4742561195       11.4140487970        7.2964715680
  O        14.0085107654        8.3402099833        1.8913674279
  O        11.7095135543       13.6749959687        1.9693383202
  O        10.2301439234        8.9675509083        5.1167097480
  O         8.3520331016        9.2140103052        2.3545289930
  O        12.6542867146        9.3603455101        6.2198906461
  O        12.4829703101       13.8938072030        7.0656995928
  O         9.0473268331       10.5458613546        0.2365290561
 Si        13.2915088694       13.8774922480        1.7084824698
 Si         8.3876267463       11.9450637665        0.6915942293
 Si         4.3714139915        3.6907863264       11.7033844363
 Si         5.9104281642        2.2905184888        9.5101053706
  O         4.8800083686        5.1014031312       12.4187070357
  O         5.5018719532        3.3833098629       10.6140764502
 Si         1.6959489280        2.2532231012       10.7812666503
  O         4.6459055845        1.2794764167        9.2607647883
  O         4.3328975112        2.6627956034       12.9061884610
 Si         6.1220498064        6.1055080220       12.8692926477
  O         1.6509632708        1.4141574024       12.1806378184
  O         2.9586669786        3.3112410885       10.9199246700
  O         6.6028357111        5.6542687093        8.9675904686
 Si         1.8828782934        0.4604814932       13.4894875965
  O         3.2246533413        0.8667298100       14.3090904727
  O         6.9212397634        6.4413034692       11.5014532329
  O         1.4933831251        1.1001680061        9.6018270360
  O         6.3694321110        3.0752387388        8.1854837086
  O         0.7907276658        6.8196179688       13.8502223904
 Si         6.5674198328        6.8893460401        9.9953647673
 Si         4.0422138654        2.2539139818       14.4144988242
  O         0.6120009466        0.6946814254       14.4660929094
  O         0.4713722713        3.2246768184       10.3761018628
 Si         6.3378965960        4.6274441863        7.7507957348
  O         7.3147396932        5.6672303417       13.9300324344
  O         0.3857088867        4.8844120648        8.2408257397
  O         7.2304214199        1.5680064519       10.0609605093
  O         5.4875212072        7.4028273394       13.6100756938
  O         3.2455928445        6.8424091434       14.6995939755
  O         5.4975652406        2.2053038860       15.1008908775
 Si         0.5167690148       -0.0345572520        8.9480558744
 Si        14.6369344481        4.1242307639        9.4192698408
  O        13.8284278089        5.0244368493       10.5222438530
 Si        11.9352710122        3.8862513916        8.5308069946
 Si        12.0883608495        2.3034153585       13.2317264710
  O        11.4095310627        4.1759830439       10.0359385737
 Si        12.3732523210        4.7517705712       11.2208363981
  O        12.3403098964        3.6824460658       12.4324920138
  O        11.8852176796        6.1637962072       11.7976505247
  O        11.7799901000        1.0957432829       12.1882580317
  O        13.4484289480        3.3012981310        8.6563955192
  O        10.8448685853        2.3478903051       14.3058571843
  O        13.4538907104        1.9614356289       14.0030929595
  O         9.6977667250        0.7096226122       10.6826198021
 Si         8.2346210610        0.3270403141       10.1362769702
 Si         9.7031947287        1.2334129145       14.6797050243
  O         9.5967037450        0.3062219361       13.3549989457
  O        14.2343672508        0.4690352207        8.2540662282
  O        10.9369509868        3.0006801664        7.6395722308
 Si        10.4724407422        0.1498851576       11.9984603949
  O         9.9192369076        6.2116695310       14.7910123167
 Si         8.3057872289        6.3357125174       15.0480802674
  O         8.2514761752        1.8931049959       15.0198106466
  O        12.0249386584        5.2614336951        7.6926765401
  O         6.6589268272       15.0677619192       14.4832684993
  O         5.1133585000        7.6068298577       10.1474013463
  O         0.4690871787        9.4158500864        7.9349691724
  O         1.5706416365       11.7934183131        8.0982290052
 Si         4.5578072780       14.7522445744        9.2576112636
 Si         4.2526016909        8.0664397838       14.4126188017
  O         3.2119242844       13.8369662682        9.2025614501
  O         5.1754094027       14.3916068307       10.6880801796
 Si         4.4893645734        9.0505445533        9.7960906659
  O         5.4393498333       10.3031322708       10.0717656138
  O         1.1970799076        9.0367944464       12.4088395622
 Si         6.4562700059       13.4945790944       14.2684142919
 Si         6.3866521454       13.5625933021       11.3127719652
  O         5.9709307256       13.1318875641       12.7901518171
  O         2.1187164913       13.9924953003       13.1306410836
  O         2.5135424562       11.3385541411       12.5173238811
  O         3.6141357509        9.1899491753       13.4426916710
 Si         2.6495555655        9.7363565925       12.2586264770
  O         3.2184300751        9.3502911370       10.7709319127
 Si         1.5453065993       12.4750495607       13.1839631697
  O         6.7567621879       12.4113430877       10.2934472610
 Si         6.4294005997       11.2629637587        9.2518347653
  O         4.4870447852        9.0414552453        8.1655062398
  O         1.1116691176       12.1101908343       14.6955812765
  O         1.2743935344       14.3274440435        7.7029195851
 Si         2.3719428032       13.1807866344        7.9537607396
 Si         0.2511518937       10.9316650529        8.4249938273
  O         0.2315119298       12.4955019133       12.2757516158
  O         5.3572677900       14.3079598469        7.9230170074
 Si         0.1271501499        8.1762330262       13.2487361469
  O         5.8012600827       11.7911344101        7.8537717335
  O        -0.0073176492       11.2431629317        9.9871140891
  O         7.7055397838       14.4668341385       11.3222574138
 Si        12.6345185248       10.3423416437        7.5163118734
  O        15.2549615914       13.9195008610       10.0536298480
 Si        14.7135105679       12.5956009721       10.8166663354
 Si        11.3004796523        9.6660653537       10.2375600987
  O        11.9519059827        7.6235278580       13.9686897948
  O        12.3497385654        9.6596446372        8.9739312601
  O        14.7721337526        9.0438243118       14.5414365226
  O        13.9818514132       11.2529937786        7.6203501038
  O        11.0804093247       11.1524718027       10.8453694595
  O        10.8502438471       13.6840633958       11.7891474662
  O         7.8051528764       10.5327149467        8.9646073589
 Si        11.5889183937       12.6754112236       10.7712862842
 Si        11.3312995984       12.9566011579        7.6989229334
 Si        12.3652212403        7.5808384805       12.4005191930
  O         7.8669667002       12.7406614594       14.4839700770
  O         9.9070142850        9.1186709307        9.6716929244
  O        11.3938816518       13.2137432960        9.2785365821
  O         8.1746326386       14.7032298567        8.6710209578
  O        13.9700087740        7.7824730637       12.3398204585
  O         7.6257633781        7.9470454819        9.4352618023
  O        13.1492166272       12.6701912770       11.0817660720
  O        11.7234016821        8.7305898945       11.4763670453
 Si         8.5419257406        9.1233754393        8.8550313412
