216
14.981 14.981 14.981
  O         5.6122527810        6.3154619531        3.5710901046
 Si         4.5908200370        5.2666927132        2.8906342084
  O         3.9061215132        1.1348267899        3.5926794032
  O         5.3165511495        4.7673372408        1.5475473516
  O         3.3557896287        6.2273062503        2.5031729894
  O         1.9379345620        2.8858030058        3.9045964539
  O         4.2861279941        3.9159906483        3.7409013821
 Si         3.4932648478        2.5792498685        4.2232770194
 Si         3.6628648727        1.1069652551        6.8263437660
  O         3.7446582307        2.3435334736        5.7872237940
 Si         0.8412715895        3.0877620379        2.7355146448
  O         1.3321607457        4.2153857252        1.7066832836
 Si         6.3771396425        6.4202815826        4.9758286475
  O         0.7089127506        1.7040434532        1.9484054217
  O         5.2184555897        6.5646736855        6.0833170465
 Si         0.9538578984        5.4017654614        0.6733158732
 Si         6.8985584021        4.8419583782        1.2493923128
  O         2.1088856601        6.4690270909        0.3179404301
  O         2.7284715287        6.2458761747        6.7859297089
 Si         3.1719085603        7.2341534421        1.2521843847
  O         2.2517286917        0.3154107329        6.6336662749
 Si         3.8939870507        7.3329772321        6.5906365843
 Si         0.7237076429        0.4281605785        7.1958784652
  O         7.1141591498        4.9746000043        5.0775714771
  O         0.8577713886        4.4554572260        7.0124901795
  O         0.2409231335        7.0314972872        7.1114889289
 Si         0.8068844233        0.1313718254        2.2229684724
  O         0.3901523227        1.9570293080        7.5734650399
 Si         1.3336833721        5.9032824628        7.5083126731
  O         7.4870742304        2.3724832875        4.1324864758
  O         7.7214946462        4.3731230139        2.5597833981
  O         7.4109908931        6.3182590797        0.8622765798
  O         9.2071195800        0.8639445849        0.3100427178
  O        14.8191931291        6.2321300662        1.4733279215
  O        14.3562518689        3.3519282173        3.3454394358
 Si         7.9030790564        0.8022053381        4.1782333308
  O        13.8923539569        3.1136681508        5.8262392430
 Si         7.9199723922        3.9382081998        4.1041114104
  O        10.6875910507        5.0046235363        2.5730778097
  O        11.9083891499        3.4446339903        4.2238326266
 Si        13.3111632909        2.7146291757        4.4105415572
  O         9.4419699265        4.0594247018        4.6026569403
 Si        10.8539417656        4.6515368355        4.1275586313
  O        13.1240251424        1.0948046252        4.3566356561
 Si        11.1436347751        5.2100360423        1.0552063679
  O        12.3191892228        6.3103627712        1.0810287432
  O        11.2245999576        5.9976558860        4.9814165436
  O         8.9832776649        0.7289087621        5.4238161259
 Si        13.4797953465        6.9183731505        2.0073906830
 Si         8.7781156917        0.5100874725        7.0334484782
  O        13.1873717898        6.7088471815        3.5847262729
 Si        14.6890321331        3.3510927488        7.1713187489
  O         9.9140643903        5.8566124626        0.2343614773
 Si         8.7305800230        6.9546974143        0.1880286852
 Si        12.1545621170        7.3083689480        4.6924988420
  O        11.6278200323        3.7720160150        0.4573364456
  O         8.3444088866        0.1699620371        2.7235382487
  O         4.9130721799       15.0574344261        6.6389557269
  O         6.6331123792       14.9097350190        4.6776398898
  O         7.3326223529        7.7349651575        4.9925916308
  O         2.3291991650       14.6585720527        2.1700138654
  O         4.5134807739        7.4959451609        0.3833699076
  O         0.0143223975       14.4387348709        1.0379089563
  O         1.9550179578       10.3729676172        7.0940593713
  O         4.9180755658       10.0591232957        0.6305128554
 Si         3.7517206156       14.6667090538        2.8890147816
  O         4.9026026526       14.5984688827        1.7958694523
 Si         6.2421292947       14.2789504784        6.1185295022
  O         2.6506076433        8.6766016277        1.7377641187
  O         3.8161049317       13.2625671611        3.7322227676
  O         3.3513140329        8.5675626833        5.6839823203
  O         2.8905509658       10.9234837462        4.6063996446
 Si         1.9685704166       10.1129122990        1.4430991983
  O         2.8092033061       11.3810846317        2.0314018099
 Si         3.6614964210       11.6673641657        3.3984165088
  O         5.1347243726       11.0075507109        3.1008835702
 Si         3.1238291906       10.1437237712        6.0079073525
  O         6.0093159021       12.7007215759        5.9281285829
 Si         5.8758606119       10.8673825908        1.6529382498
  O         4.4440019958       10.7663818733        6.6461405862
 Si         5.9375898311       11.3073770355        6.7299740707
  O         6.0131183126       12.3269884846        1.0161008588
  O         0.5714712614       10.1470225405        2.1935378614
 Si         5.5472482302       13.7924737363        0.5797792293
  O         6.9397340253       14.5963739888        0.3826798821
  O         6.8833218259       10.1346715299        6.1573790701
  O         7.3394993484       10.2086760151        1.7934547610
  O         7.5404021738       14.4285306724        7.0972884550
  O        15.1386832528       14.6005887976        3.5928610567
 Si        13.9737315599       10.0102888783        2.1309450783
  O        11.2358303398       11.3872445840        4.2791659583
 Si        13.9467832345       14.6977549859        4.6705374020
 Si        12.5850861502       12.0988354067        3.6660553090
  O        12.6415799230       12.7957076627        2.1839260502
  O        14.6663189435       14.8294632244        6.1047443576
  O        12.9560989678        7.8013954475        5.9999399418
  O        14.5115911522        9.5910259544        7.2689655375
  O        13.5062916601       10.7613739125        3.4958359270
  O         9.9175727916       10.1466020287        2.4924351238
  O        13.5725216403        8.4971432747        1.8806285995
 Si         7.9935827730        9.0349149153        5.7416292566
 Si        13.9768112694        8.0577139279        7.2133654176
 Si        12.8692487370       12.2304280230        0.6612455238
  O        13.2731126662       10.6947633096        0.8609306364
  O         9.1434940125       13.3215034959        0.8416366174
  O        13.0424920958       13.3410842005        4.6152506904
  O         9.2767659549       10.8435875924        0.0802247111
  O        11.3170141581        8.5949110427        4.1418275332
 Si         8.3815400365       14.7226407632        1.1312562081
  O         9.0479160014        8.3384917252        0.9376852066
 Si        10.4421147468        9.9733235646        3.9992945672
 Si         8.8626636155        9.8880522358        1.3159331835
  O         9.1254174120        9.8213191932        4.9123093853
  O         8.7384098776        8.4255159987        7.0237157462
 Si         4.0862020970        3.4325780274       12.0949734915
  O         2.6587151336        3.5815046229       12.8706141711
  O         1.5556613074        5.8306574650        9.1080605175
 Si         4.4064155277        1.4391272367        9.6628167661
  O         4.5291762603        4.8484639637       11.4645889397
  O         5.2968909047        3.0484146526       13.1105225957
  O         3.9027744988        2.3218124991       10.9257215873
 Si         5.5982869919        5.9857682066       11.0988873451
  O         1.5706745630        5.6275457489       11.7906537150
  O         5.9303467510        1.8731607670        9.3666996085
 Si         6.8508901463        3.2934825135       13.4995878512
 Si         1.2522367971        4.3880291577       12.7532707833
  O         6.2178777528        6.7087528870       12.4015444430
 Si         0.9637041719        6.3477498393       10.5043842864
  O         6.8706587091        5.3857615841       10.2957124891
  O         0.6278100403        4.7569900484       14.2046048688
  O         3.6553861097        1.7939857045        8.2823953715
  O         4.8470552381        7.0999318282       10.2354178363
 Si         7.5275693740        1.8562419374        9.4348909116
  O         7.1003595854        3.8916915593       14.9634775238
  O         0.0659715218        3.6606611007       11.9494846463
  O         7.5723601373        1.8698442789       13.4946197084
  O         7.6384797087        4.2139142700       12.4339719176
  O         7.7994057135        0.6185559953       10.4499071329
  O         8.1901997977        3.1834023660       10.0610758740
  O        13.5843076727        3.9128348986        8.1884426105
 Si         8.0970033133        4.5316365735       10.9234695399
  O        14.3113339960        6.2547723636       10.4548455584
  O        13.5691435468        1.6505227928       11.7168025061
  O        11.1540083354        4.8455770114        8.8890818338
  O        12.7161680727        3.7480716467       10.5372825282
  O         9.5218443506        5.3056559327       10.9168518672
 Si        13.5076444294        3.2519725997       11.8107472118
  O        11.7106602133        2.1615804154        8.5909933091
  O        12.5747391833        3.7411639505       13.0413437442
 Si         9.0853636179        1.4295502197       13.7856392370
 Si        12.2421290997        3.6408918001        9.0205274412
 Si        11.6855908530        2.8836362934       14.0794501363
  O        10.1437796009        2.6457047515       13.6486222961
  O        12.4027191858        1.3960325302       14.0471239633
 Si        10.4981608795        6.0269205857        9.8188411518
 Si        13.2711509964        0.6084360589       12.8935831295
  O        10.3026338241        0.8727786359       10.3059279297
 Si        11.1530071953        0.6770376193        8.9585576747
  O         9.3683590903        0.3208189882       12.6582497936
  O         9.4605736613        6.9608969614        8.9882540331
  O        11.7156065323        6.9378569049       10.4684042179
  O         8.1950791956        1.7199405104        7.9600090562
  O        10.2130843789        0.1510963280        7.7229841530
  O         8.4288554860        7.3307733434       13.6366785620
 Si         9.1570769884        0.0616245736       11.0932383879
  O        14.6650347221        0.0790183906       13.4966079165
  O         4.1314987099       14.8250855417        9.8405871060
  O         4.2927013380        8.0420001876        7.9600552281
  O         6.8550230556        7.8092545492        8.7355358157
  O         1.4126915906        7.8696566192       10.6864235446
 Si         4.8167089598        8.8616369487       14.5382866309
 Si         0.6438061185       10.5025062056        8.0247929068
  O         4.4412420772       13.6519354555       14.3756421986
  O         3.3509152129       13.8838937315       12.0675790687
  O         3.5878744856        9.1280410663       13.5006717900
 Si         3.4959988804       13.4849958346       10.5067749700
  O         4.5310690617       12.2489779721       10.2270346122
 Si         3.1362377556       13.2009652236       13.5067659433
  O         5.1542441391        9.6896959422        9.6906844067
 Si         5.6887866315       11.2210638661        9.7416259228
 Si         5.3310327430        8.1807424481        9.1568788806
  O         1.2376622932        9.9049067826       12.2415183263
 Si         2.3578068537       10.1926043381       13.3931962873
  O         3.0585815269       11.6240412089       13.1854871212
  O         2.0057391862       13.0387336493        9.9870760574
  O         0.8503470011       10.0697801526        9.5797572494
  O         6.2433846424        8.8233311809       13.8143917670
 Si         0.5133738489       13.1967820332        9.3231675856
  O         1.7060532551       13.5730362227       14.1947507814
  O         6.2403152386       11.6251779185        8.2772729995
  O         7.0004133834       11.1701499076       10.6981993584
 Si         0.5767817913        9.2072481657       10.9152273065
  O         0.5445166184       14.6076972379        8.5715500414
  O         0.2439804619       12.0596830032        8.1912344700
 Si         0.1583783266       13.9211664271       14.5243610781
 Si         7.1658790192        7.9241660479       12.8506064776
  O         1.6458774098       10.2280270555       14.8435222102
  O        11.4536027221       12.4002528475       14.9693369223
  O         9.5166583227       10.8469212187       11.3889713564
  O         9.7581564236       12.6337902386       13.1903902974
  O         9.2806070619       13.4662733388       10.8350199832
  O        13.9776911881       12.7910451405       14.5912150016
 Si        12.6809452075       13.6116711264       10.6767124778
  O        12.5588703265       14.3832122193       12.1039073218
  O         7.7224660846        8.8165884500       11.6359979640
 Si        13.2438392691        7.4532946380       10.1620498616
  O        12.2460259525       14.5166674859        9.3708985055
  O        11.6199809465       12.4026012264       11.0043186355
 Si        10.1036285191       12.3252509946       11.6367598104
  O        13.9611530006        8.7424140440       10.9337698868
  O         8.6665013767        9.5163507629        9.3679773299
  O        14.2290237223       13.1739773224       10.3752394222
 Si         8.2227725613       10.1092748409       10.7983408593
 Si         9.8750660561       12.3190676974       14.7660897549
 Si         8.4387002398        8.1366331233        8.5667030849
  O        13.1878107617        7.7982702804        8.5887739178
