216
14.911 14.911 14.911
 Si         3.5429164110        5.6555989589        3.4706109186
 Si         6.5906133227        5.0052205113        3.2370334963
  O         3.0618024588        4.5586802875        2.4075201227
 Si         1.9692134015        3.8420546716        1.4690599395
  O         2.9159336762        5.5413336594        4.9607993140
 Si         1.4469397388        5.9548839347        5.4960624367
  O         5.1258468407        5.5495966932        3.5533322837
  O         0.7363543570        3.4895212554        2.4877321822
  O         2.5571828088        2.4841236239        0.8406794122
 Si         3.0725450496        0.9697868196        0.7433240012
  O         6.6206168913        4.0652535562        1.9065701744
  O         1.1571303740        5.2919680484        6.8981687036
  O         0.4224321074        5.2935458756        4.4550682869
  O         3.0666546186        7.1164018821        2.9780986612
  O         3.3042209905        0.4082287542        2.2381033785
  O         1.6666777204        4.8127406673        0.2014956798
  O         5.6238656114        0.6497608803        7.2077959864
  O         7.3004689874        2.5551226231        6.4606577004
  O         7.0463142854        4.2201051563        4.5551654271
  O         7.5361232169        6.2958638026        3.1444979790
 Si         7.4862221860        3.2123641015        0.8046533402
 Si        14.7568237719        3.9546400029        3.7783543347
  O        14.5665595709        2.7468328612        4.8827366844
 Si         8.1445629560        3.4228580160        5.4067113401
 Si         9.9421620541        5.7509374014        6.3403211874
  O         9.0251297563        2.5641730064        4.3814493332
  O        13.3423874205        4.4730956861        3.2435300970
 Si         8.8762268769        1.6401500478        3.0780455527
 Si        13.5448161579        1.6605449308        5.5503541999
 Si        11.0215386323        6.7116815314        3.6656009137
  O        11.0209525022        6.2100101652        5.2160533179
  O        10.2502794298        0.8224626102        2.9726867255
  O        11.6775302360        2.8078247832        2.3120650051
 Si        11.7611060347        1.3440128222        2.9776553462
  O        12.4290152799        1.3421071130        4.4346580560
 Si        12.1105502725        4.3532102460        2.2438620901
  O         8.6156466160        2.4907970418        1.7321643710
  O         9.2683713540        4.3126749325        6.1275895634
  O        10.9486594759        5.3779108722        2.7361994448
  O        12.5852702556        4.7248088277        0.7466627090
  O         8.7018807846        6.8020138356        6.2985035346
  O        12.6706849297        2.0700465261        6.8773882183
  O         7.7061815299        0.5803681584        3.4039631893
  O        14.3264644520        0.3106708040        6.0508531342
  O        10.6739974551        0.3324598541        6.6196356377
  O        12.6014770939        0.2831629884        2.1416432591
  O         1.2492086908        7.5417897282        5.7146862864
  O         4.8866313878       12.9147306923        6.7900000812
  O         1.8243561182        9.9308699073        0.5802773820
  O         6.8003703729       14.0775116667        5.4605814871
  O         6.5516504432       14.3903094578        0.9196577411
 Si         3.3760254885        9.5359344087        0.5698783477
  O         6.4661515411        8.2845666295        6.3859020072
  O         3.3172723808       13.9357107507        4.4732085785
  O         4.8199595791       13.1607103329        2.4053643335
 Si         3.4444678590       13.8422124247        2.8612476700
 Si         3.4272014550        8.6187129362        3.4263928252
 Si         0.8477344099        8.9405514046        5.0040707957
  O         4.6476828663        8.6118516764        4.4734547677
  O         1.0711562252       12.6727427302        4.5658864862
 Si         6.0545786117        9.1277848932        5.0826610383
  O         2.1003142616        9.2985484737        4.0452025432
  O         3.8929307442        9.3620921387        2.0817766467
  O         5.7200465645       10.6687263883        5.5497492436
 Si         2.4039640682       13.0189298999        5.4573078805
 Si         4.5394367885       11.3750318884        6.4313910744
  O         3.1488476775       11.5878078565        5.6368071623
  O         2.2313466370       12.9276619147        2.3106345903
 Si         0.8075974309       12.5331994783        2.9586197842
 Si         6.3260869294       13.0624005942        1.8248935202
  O         6.5393698587       11.6832055763        1.0026837883
 Si         6.0414678153       14.0266501227        6.8728617790
 Si         0.3176866683       10.0345011522        1.1232057363
  O         2.2273650749       13.7460744905        6.9172399607
  O         0.3970021203       11.0974897433        2.3426091034
  O         0.4987419023       10.1965760714        5.9591086129
  O         7.2886243335        8.8572656459        4.0522846901
  O         7.3683636365       13.0070501487        3.0687912405
  O         4.3950837697       10.6020145888       -0.0806073525
  O        14.4057569274        8.6113583387        4.2291571630
  O         9.7012616924        7.6337798169        3.5611574004
  O        12.0153560683       12.5964485039        2.6491559795
  O        14.5011224912        8.6768479697        1.6834367526
  O        12.7473373632       10.1088732724        2.8160138058
 Si        11.4779174790       11.0844571118        2.8975775009
 Si         8.0958594415        8.4147530273        0.0829338005
 Si        13.4608926012        8.6801899635        2.9517121556
 Si        14.2581341369       11.0138792331        6.7686624430
  O        12.9894354865       13.5064039402        0.3428807562
 Si         7.7986650415       14.0803646647        4.2000492957
  O        10.8528528058       10.8465569620        4.3788159648
  O        11.3484860542       12.6828191653        6.0464231018
  O        14.4978241340       13.5049133473        2.5665573243
 Si        11.3296228754       11.0634834316        5.9200576358
 Si        10.1676409293       13.7827192948        6.1506431599
  O         8.1229600486        8.2831284190        1.6610595803
 Si         8.1438221278        7.7817793490        3.1631035267
 Si         7.6437453610        7.5919040955        7.2324219289
  O        12.3337986334        7.5332714203        3.1507505668
 Si        10.5618516632       10.2921862402        0.1392694731
  O        12.8265795677       10.5204603619        6.2083726326
 Si        13.0175902311       13.6623728135        1.9442295006
 Si        14.0690839495       14.1528271385        7.2803118348
  O        10.4403331813       10.6934501641        1.7099908433
  O         9.2815708251       13.8345896783        4.8000472351
  O        14.1765940543       12.6349124355        6.7148167202
  O        10.3581601144       10.2788149857        6.9633951560
  O         9.2631857158       13.1593928532        7.2992314033
 Si         4.3817092637        4.0893624192        8.9820677360
  O         5.4813142670        4.9646602014        9.7754804613
  O         1.1592189741        4.2248076134       12.5905905816
  O         2.4018318298        6.5324783448       13.0048917236
 Si         1.3597851056        5.4453444116       13.6502722458
 Si         6.7281790437        5.9982890104        9.6955719531
  O         2.3169833185        0.9506236336        8.6960805204
  O         3.5698770248        2.9795558071        9.8617694730
 Si         2.1159462180        2.3241944388        9.5230584661
  O         1.2379041016        2.1687908110       10.8598625358
  O         1.3199684200        3.3913745724        8.6139146512
  O         0.9062380902        1.7176990168       13.3552317044
 Si         1.6011012535        4.9582443813        8.3802686812
  O         3.2173858063        5.1373976203        8.5271877142
  O         0.6791409799        5.8602693173        9.3549051300
 Si         0.5605951253        2.7721390631       12.1968838370
  O         6.8834656482        6.5524372094        8.1935647645
  O         5.1217739255        3.2454160961        7.7931143402
  O         7.0633713199        1.9644012974        8.9763098567
  O         2.0678100884        0.0053471730       14.8212229046
  O         6.6394676165        0.3323318735       10.9172850313
 Si         6.0279131592        0.5420576397       14.7268928964
  O         6.4803680813        7.2762509606       10.6693375810
 Si         1.1952353650        0.1342623344       13.4618958940
 Si         6.2514939686        2.1039872109        7.5920846310
  O         0.0004230810        6.2843109995       13.8347038525
  O         6.7876097961        1.9801160148       14.9105291283
  O         4.4791339978        0.9133132029       14.9030159232
 Si         7.7994490487        0.9731269652       10.0109522661
  O         8.1065288686        5.2284674394       10.0277184219
 Si        14.2952209929        6.7256666126        9.7771060484
  O         9.1180632257        5.3090416825       12.3592267385
  O        13.8511965898        2.8135496152       12.0961801729
 Si         9.5253808380        5.1880634360       10.7963792876
 Si        13.7288633140        6.7961784904       12.8818012701
 Si        10.4736053919        2.2352476910       10.3872390694
  O        12.4123658769        5.9565323944       13.2736541514
 Si        12.4785820975        2.2060777465       12.7259938276
  O        11.7668781050        3.3882646807       13.5735521696
  O        10.3567693300        3.8475264539       10.4365090389
  O        11.5152003290        1.7457793575       11.5163424278
  O        11.0163996187        1.6623187581        8.9511489490
  O         8.9715536046        1.7561663438       10.7818142601
  O        10.5150281818        6.3797892143       10.2691323944
 Si        11.3358732012        6.6161339855        8.8759049370
  O        12.7540675399        0.9136495060       13.6719352895
 Si         8.8524629314        5.4911647315       13.9489537760
  O        12.9160806380        6.3053181349        9.0327800125
 Si        11.7819619807        4.8494053115       14.2626442011
  O        14.0832965658        6.4849264320       11.3502184120
  O        10.2907994444        5.3168271372       14.6554591398
  O         8.2031854657        6.9620751074       14.2539625074
 Si        11.7374497703        0.9824447745        7.6744261837
  O         7.9529214910        4.2949268998       14.5896205666
  O        10.6849036566        5.6411301651        7.7668975304
  O         6.1504880676       14.6582610549       13.3188179691
  O         6.8687119239       13.4204232286        8.1167266915
  O         1.9125820261       14.5761377759       12.1009738805
  O         3.4820498834        8.2046527387       14.5739809706
 Si         1.8686790340       14.3254114718        8.4200242516
  O         4.4669055108        7.9473869032       12.0960581233
 Si         3.1437321907        7.9805180106       13.0095075735
 Si         5.9049745403       14.1140334526       11.8065385779
  O         2.4794417967       13.4991228208        9.6865585627
  O         4.3216427711       13.9849278995       11.5142277123
 Si         5.3623000368        8.4340178291       10.8447319728
  O         5.9733083500        9.9115369099       11.1669460799
  O         2.3233916419        9.2902386206       12.4301283137
 Si         2.2270810753       10.5498489001       11.3900103294
 Si         3.5253132721        9.6427659366        8.9200705438
 Si         2.7959831450       13.5041062764       11.2917600841
  O         3.3936230414       10.5240074376       10.2677517515
  O         4.4944609524        8.4516632705        9.4506230047
  O         2.4097638421       12.0552501059       11.9496961032
  O         0.8286328215       10.3532994990       10.6037266767
  O         6.3800380110       11.3402666536       13.3668854046
  O         1.9965985217        9.2035150628        8.5407346900
 Si         6.7894041127       11.1483391104       11.8392774891
  O         6.5378936862       12.6793092095       11.3450597149
  O         0.2616113945       14.2609123033        8.4514351313
 Si         0.5400565078        9.5975293887        9.2023472888
  O         4.2268748339       10.4370979423        7.7113164662
 Si         6.0135924546       10.6763374160       14.7642363171
  O         6.6994389665        9.2023794555       14.7374989504
  O        10.0372391416       10.0203484244        9.6730983323
  O        14.5787217772       10.5996182528        8.2924270090
  O        10.6782820707       11.5986713599       14.0855467629
  O        12.6879177289       14.6034547498        8.0197663512
 Si        11.5783793902       11.9455644564       12.7682016181
  O         8.3523845588       10.7609653161       11.6770664744
 Si        13.1854915621        9.7429333213       13.8501401610
 Si        10.0139079044        9.3057530513        8.2250401496
  O        12.7532998332       10.8367638587       12.7479234114
  O        14.3413994885       10.4354718692       14.7443825667
 Si         8.3869540327       13.3548285539        8.5995598529
  O         9.3378526099        9.3626570590       14.5776335470
 Si        13.1736010971       14.2623728961       13.8380621742
  O        11.9261627241        9.4440941883       14.8276497509
  O        14.5832896718        8.2738380716        9.4444069458
  O         8.5221820664        8.6973155313        8.0333585665
  O        10.6891624455       11.8523569126       11.4294448823
  O        14.7568918372       14.1784957019       13.5696271212
 Si         9.4745222297       11.1986286349       10.6079705610
  O         8.7015735146       12.1804302696        9.6097134860
  O        12.2492151956       13.4097648011       12.8286105609
  O        13.5829447197        8.3803955934       13.0994656996
  O        11.1049075043        8.1166422864        8.2994925150
  O         8.6939598866       14.7583299069        9.2800651301
