216
14.895 14.895 14.895
 Si         2.8703078461        1.0625708637        5.7186871977
 Si         5.4109790097        4.4733312854        4.6283532698
 Si         2.6627826588        4.6483057247        3.4103755747
  O         5.6247918277        6.0280969381        4.3024998447
  O         3.0600031868        5.0499708915        1.9053084711
  O         2.1460895726        5.8042155972        4.3846311229
  O         1.6519052003        1.6637713195        4.8765122866
  O         5.4650896821        4.1266504529        6.2119886794
  O         1.4363769244        3.6364436375        3.2316772604
  O         3.9799699678        3.9750081465        4.0623574180
  O         5.7996316952        1.4111476193        4.1338126350
  O         6.6262300710        3.7930149139        3.8084196134
 Si         3.5140250913        0.9670279048        1.0367810957
  O         1.9128793652        0.7423277993        1.0842868066
  O         3.8199370078        2.1620337832        6.3692278080
 Si         0.6108855180        2.4583201479        3.9438613123
 Si         3.2911505737        4.1174178661        0.6051782827
 Si         2.2819448657        6.9776870119        5.4725576044
  O         3.6501890504        2.5845392048        0.9993575252
  O         1.0670444082        6.9491201055        6.5462668423
  O         3.6604486990        6.7123930627        6.2893917452
 Si         0.3740807352        1.2447924536        1.1173762216
 Si         6.9777521457        2.2724477995        3.4543399819
  O         3.6370240597        0.0812084336        4.7252995591
 Si         4.9163280548        2.9666265749        7.2150857041
  O         4.3108324803        0.2545620336        2.2596270100
  O         0.0019293442        1.6472014609        2.6622530930
  O         2.3875064458        0.1631249497        6.9470482150
 Si         6.2736394284        7.4751197485        4.4908675831
  O         6.9426423552        1.8968474727        1.9007572384
 Si         4.8925710608        0.1212420722        3.7594943831
  O         7.0325054620        0.1613787361        6.2198326164
  O         0.0910022033        2.4823976687        0.0837334046
 Si         7.4639178273        1.4076790132        7.1467040975
 Si         4.8580584758        7.5180488930        7.0170537143
 Si         7.6717482403        6.6284247749        0.1938234415
  O        14.9187123916        4.6586404338        7.1312670770
  O        14.4047226396        3.0599899044        4.9598187183
 Si         8.2035264476        1.3204274605        1.0728303405
  O         8.5045967262        1.9203457306        3.8925034057
 Si        13.8716177502        3.6906486830        6.3483070842
 Si        11.0779003220        4.7362147752        5.3969695688
  O        12.5729972591        4.5557919560        5.9566762018
  O        10.3440959143        4.8815200719        1.5653226706
 Si         9.3182943323        2.2312740288        5.2486333966
  O        10.4261921992        3.3314969728        4.9635425876
 Si        10.8499027068        6.0979670631        2.5198919722
  O        11.0883624162        5.6288922307        4.0518620625
  O        10.0944001116        0.9953295209        5.9480988338
  O         9.1878828385        2.6064598611        0.9724058407
  O        10.1933155997        5.2817412374        6.6327699708
  O        12.1641823202        6.7001312829        1.8174220497
  O         8.1266259434        2.6263430469        6.2862541927
 Si         9.3554953303        4.1493242667        0.5053915388
  O         8.0137632251        5.0674104847        0.4955229242
  O         9.8600457719        7.3716400379        2.5640322423
  O        13.4952464963        2.4740395314        7.3468556394
  O         7.5165715983        7.4499641844        1.5621924036
  O         6.1009806418        7.8629909388        6.0342247672
  O         6.1141304309       10.6696090901        7.3605860924
  O         2.3221282325        8.3508777581        4.6231011310
 Si         0.8603782284        8.3105188897        0.7203770846
  O         1.8942736837        8.2119963968        1.9720694079
  O         5.8030677154       13.7442198637        4.2154840347
  O         5.4485242570        8.4987870944        3.5654909909
  O         3.4799448229       10.0896677238        2.9813456100
  O         4.7138865262       10.4273354774        5.2202960296
 Si         2.1446798123        9.1942117033        3.2387428057
 Si         4.9385329781       10.0266118543        3.6851241201
  O         0.8430463436       10.1640928219        3.4058074495
  O         1.3149559102       10.5961181391        5.8720813581
  O         6.1198358164       10.9311457286        3.0647961825
 Si         4.6277286492       10.3702364382        6.8226394720
 Si         0.1808074440       10.7720899516        4.7517322959
 Si         7.1198408720       13.8273711222        5.1853862277
  O         0.7370837725        9.8667223755        0.3318590476
  O         6.9642033728       10.9249241187        0.6658104775
  O         4.2218560077        8.9330279546        7.4446654113
 Si         1.0110760778       14.2999002932        7.1951806265
  O         3.4102579243       11.3298969440        7.2917527886
  O         7.3695480751       12.4897131875        6.0323874085
 Si         1.7957225071       11.2500821922        7.2581364799
  O         8.3445338097       12.3107569123        2.3943533122
  O        14.4033887686       14.8970351990        0.5794249362
  O        12.9011568154       13.9863066419        4.1320110256
  O         8.8482180914       14.8986079064        1.7386711435
  O        14.7352830649       12.3370881471        4.6420429962
  O        14.4829442747       12.2327832317        0.0733401886
  O        14.9253614606       14.5669778055        5.9290663470
 Si         9.0193636183       13.7159990274        2.8219366553
  O        12.5769270280        8.9284477398        3.0659408268
 Si        12.7900271652        8.1785500869        1.6658325745
  O        12.0896160087        9.1778325801        0.5969559701
  O         8.3578181595       14.1367399330        4.2207110297
  O         8.4327400230        9.6877698776        2.5628661397
 Si        13.5812272582       13.5542951928        0.3069754940
  O        12.6584604466       13.3113195102        1.5819390016
  O        14.3066353747        7.8585635831        1.2421964520
 Si         7.4809364051       10.9639378608        2.1864933879
  O        12.1648473036       11.5058275673        3.4044742301
 Si         7.5573981070       11.3643560430        7.1671537730
 Si        10.4046987869       10.2307055913        6.4539055086
  O        13.6380080388       10.0887290104        5.0605657104
 Si        13.8668973394       13.5162302479        5.3240228734
  O        10.5808765938       13.5622453101        3.0648119701
 Si        12.0914766601       13.0782722230        3.0500570279
  O        12.9875997388       13.1661015192        6.6296508198
 Si         8.4380891175        8.0748603174        2.7122543174
 Si        12.2904559139       10.0739469872        4.1410123938
  O         7.8356964651        7.6111381299        4.1370434506
  O        10.9203925048        9.7672663991        4.9744112346
  O        11.0069047081       11.6682389933        6.6936044671
  O         8.7779862721       10.3484569483        6.7046977663
 Si         6.3239334326        4.6661625325       11.4016385382
  O         2.9847261918        2.3222084134       10.5027484814
 Si         2.1475004861        1.5416178859       11.6348096594
  O         5.4477678920        3.4044667950       10.8507368065
  O         1.4979807820        2.5407343375       12.7237198985
 Si         3.9923485884        3.5182739995       10.1190392522
  O         1.6481329750        6.0474669031        8.9376229426
  O         5.3796561540        5.4463911208       12.4035562611
 Si         1.8242367872        5.6340290663       10.5068034367
 Si         0.7572931910        3.4429984790       13.8430502910
 Si         4.9671408448        5.9830673049       13.8285384246
  O         3.2270600086        4.8643566139       10.5928954547
  O         4.2178625720        3.5643964986        8.5261562625
  O         5.7948260519        1.0767142868       12.7442568123
  O         6.5480596167        5.6211087398       10.1734431797
  O         1.8981985403        6.7802673274       11.6801771126
  O         0.9148062111        0.7369970976       11.0029639224
  O         5.5554179701        6.7005280757        8.1924766154
 Si         6.9767413451        6.4764338657        8.9284577967
  O         0.4845642595        4.7219581053       10.7682332254
  O         3.7217358834        6.9541262403       13.6506753710
  O         3.2132957004        0.5048413960       12.2542069789
  O         1.9756381569        4.2286546225       14.5646201722
 Si         0.4758041434        6.0814615769        7.7969359396
  O         6.2323567027        6.7795598983       14.4040880859
  O         4.5593650254        4.7186233146       14.7310802204
  O         6.1169728012        2.0065506439        7.7744595046
  O         4.1416863234        0.2558140032       14.6421579709
 Si         4.5278491753        0.1126677822       13.0887371007
 Si         7.3853023892        0.9170578973       12.9984357619
  O         0.4100075575        0.0026567264        8.5265958335
 Si        14.7038208862        0.2205752825        9.9779286068
  O         7.6166237068        0.8232513650       14.5742924503
  O        14.5607847248        4.4716141744       13.1465423485
  O         7.7738478666        4.4616144767       12.0806944831
  O        13.8260716610        6.6874119096       11.3244955015
  O        13.5606021125        1.3282629425        9.7692042241
  O         8.3601023672        2.0770845708       12.4966875729
 Si         9.0386756226        3.5287765787       12.4552796769
  O        12.5746444682        4.5516614293       11.3354485692
 Si        14.0690048267        5.0899533689       11.6864139891
 Si        11.2948823082        4.1599024236       10.3944793181
  O        11.9998910231        3.3065422075        9.2652057637
 Si        12.6581014352        2.0184676086        8.6403391950
  O        10.1896684162        3.4785881351       11.3381823803
  O        10.4231741103        5.1373616289        9.4376617060
  O         9.7588794584        4.0467864139       13.8205364762
  O         8.1161027812        5.6497754831        8.1150695466
  O         8.6853044747        0.9089975230        8.1140574979
  O        14.0788715927        6.6944388652        8.5911554705
 Si         9.7369098744        5.7594116828        8.1029798749
  O        11.4178162416        1.0804284398        8.2659095379
  O        10.1684857438        7.2737991732        8.2560612936
  O         8.8872505195        7.2813467793       14.2182268597
 Si        10.1420107084        0.5047123601        7.4935316820
  O         1.3106001419        7.4579479741       14.3069270144
 Si         2.3621499227        7.5442172820       13.0556662872
  O         1.0740170151       10.3349502030        8.3509443966
  O         3.6533036206       11.4176231604       12.0794196270
  O         6.0275360785       11.0787782770       13.1444386622
  O         2.6376808540        9.0972799141       12.7408243221
  O         4.9673977156       13.5015376586       12.7624066566
 Si         2.2957901633       10.5755296171       12.2165221503
  O         1.6587915895       10.5139690871       10.7599072302
  O         1.1516665982       11.2538842497       13.1442934083
 Si         5.1415969176       12.0220895387       12.1668569845
  O         5.9597196067       12.1594312467       10.7534986098
 Si         0.4306734402       10.1957412098        9.8052198599
 Si         7.4286795031       11.7058399663       10.1989030403
 Si         7.3786010984       11.0115882815       14.0190584095
  O         1.2364221857       12.7379470036        7.4385147720
  O        13.5692641423       10.0975026035       13.5739595715
 Si        13.1479613976       12.4518035046       10.2934266852
  O        12.6563151975       13.7300120914       13.8856526660
  O         8.8522587774        8.1764589661       11.7562464569
 Si        14.8965209971       10.8690518380       14.2110068421
 Si        11.6935053765       12.7247849621       13.0649711640
 Si        11.9924439133        9.8860497847       14.0507582978
  O         7.6196355787        7.8591262094        9.4270300874
  O         9.8479375305        9.3495824819        9.6906553916
  O        12.3306360357       12.2435360382       11.6642280694
  O        14.8147094395        8.7030288627       10.0889498235
  O        14.0694128586       11.1721671012       10.0124952537
 Si         8.4562895967        8.8598530397       10.3540275170
 Si        13.7186941605        7.5502734065        9.9358446915
  O         7.8704851718       14.4873723098       12.2513770425
  O        10.3229632274       13.4956022930       12.7406567591
  O         8.3522525058        9.7696363713       13.7320248525
 Si        10.9352954850        8.5296526246        8.8317779527
  O        14.0712922154       13.7457383269       10.5130259381
  O         8.6152270372       12.4083540789       11.0324883047
  O         7.5132666315       10.1341012128       10.5242429450
  O         7.7820713266       11.9965792450        8.6452372011
  O        12.1624044554       12.6437374446        9.0285290760
  O         8.2044311162       12.3422593359       13.6714924525
 Si         8.7772082681       13.1868262690       12.4282882323
 Si        11.6778757987       12.8418542365        7.5091097722
  O        11.4171447780       11.4073635932       13.9853971938
  O        10.8588062560        8.9496473585       13.3116411599
 Si         9.2745505832        8.5432683886       13.2680251676
  O        12.2493010864        8.1816171155        9.6910813852
  O        10.4173177320       13.8370512687        7.5283847856
  O        11.2530860984        9.3596284719        7.5121045498
