216
14.82 14.82 14.82
 Si         5.7233458945        3.2975272231        5.0377445482
  O         6.2579366134        3.8691428199        3.6325735649
  O         0.9033918552        5.4300645598        1.3970929200
 Si         1.8175479727        5.7641380600        2.6826188363
  O         5.2784131259        1.7386852646        5.1100364658
  O         0.9198307017        0.8965401049        5.0053297864
 Si         0.8961687550        2.2034019831        5.9572222805
 Si         2.8386461848        4.3002277550        5.2152998603
  O         4.4330183246        4.2236072815        5.2647923845
  O         2.3177774015        2.8735361184        5.6762413103
  O         2.1365767482        4.6199227022        3.7872687706
  O         6.9124372300        3.6187721395        6.0797622740
 Si         6.6398556756        5.3643788816        3.1337565941
  O         5.5015512823        6.5101755587        3.0546874976
  O         3.2172715423        6.0860084055        1.9806035256
  O         2.4722696868        5.3532494078        6.3460086589
 Si         4.8511457760        0.4964494603        6.0859424231
 Si         6.7045191876        4.1183565686        0.3795299742
  O         0.7181217126        3.0294356209        0.8276016985
  O         7.0868508361        5.0249399755        1.6486157191
  O         1.2542755587        7.0658815435        3.4694069715
 Si         4.2649416494        7.2248247840        2.3431687153
  O         5.1878403325        3.5398718260        0.2493790106
  O         3.2846076604        0.0865952200        5.9331789059
  O        14.5504777072        3.2943543291        5.6683361929
  O         7.7399840292        6.0783276653        4.0432600652
 Si        11.5636955676        4.2477958765        0.8209142595
  O        13.0936460627        3.7856266780        0.9901536927
 Si        13.3443480559        3.4556615052        4.5862101373
  O        12.1842685015        2.4697855677        5.1007162471
  O        12.5354330874        4.8545538620        4.4450079340
 Si        11.3981908390        5.6244258911        3.5756435852
 Si        11.7594567141        1.5821780118        6.3681194082
  O        10.9542710746        4.6771432137        2.2961163575
  O        10.2126177312        6.2407467556        4.5233259571
  O        14.0790722254        3.0496771484        3.2120867946
  O        13.9142252567        1.2145113949        1.3903864816
 Si        14.1643047114        2.7678626533        1.6268994390
  O         8.4809116610        0.8247926379        1.8866948151
  O        12.1017506322        6.9084097143        2.9601330100
  O        11.5939677886        0.4980280954        0.5618084967
 Si         8.1351352104        1.3212822038        0.3679302988
  O        10.2059098761        1.8123665940        6.7529982054
  O        11.9329255382        0.0754315463        5.7489797808
  O         7.7407827676        2.8896936035        0.3306665632
 Si         8.8451553365        7.1469181878        4.4911606644
  O        10.8787609462        2.9826635689        0.0722713885
  O         4.1001737860       10.0527117815        6.4818538092
 Si         1.9657714249       14.4671981945        5.0890985272
  O         4.5305047217        7.9879179183        0.9759862992
 Si         2.8007300275       10.4084895937        5.6377772508
  O         5.6811936952       14.0009140194        5.6030206696
  O         2.5412457220       13.8324042227        3.7062261341
  O         2.0473288776        9.0488642887        5.1888426295
  O         6.2621042213       11.7001711824        4.1224590166
  O         3.5499966327        8.3113687365        3.2969505941
 Si         1.9972423763        8.4893094805        3.6794690597
 Si         2.9881152990       12.4052266279        3.0770772677
 Si         5.8380195325       11.5186613900        2.5460904183
  O         4.4671247347       12.3425657104        2.4623275027
  O         2.1325244942       12.1864673953        1.7203342155
  O         2.9610851848       11.2943680280        4.2770897672
  O         1.0066092444       13.3508040375        5.7508760914
  O         1.2280303075        9.5538209672        2.7279003984
 Si         6.8075880016       13.0556761808        4.8957426237
  O         5.8460804958       10.0417357469        1.8036198358
  O         1.9749916276       11.1876073519        6.7504455648
 Si         0.8808538038       12.3222420908        6.9600470430
 Si         5.5890759555        9.0777099786        0.4760712351
  O         6.9130432440       12.3541985060        1.7290586620
 Si         2.0601474660       12.4738409181        0.1170310246
  O         6.2523623736        9.3008068387        7.0832244495
  O        11.7782107269       12.6215002954        4.3658878526
 Si        12.8244982642       14.8701001041        1.4969241912
 Si        12.3628568841        8.1691304369        2.0376938482
  O        12.8489123482        7.6875999275        0.5922261819
  O        12.2500104001       10.3821079419        5.8419867671
  O         7.7287303504       12.5096974503        6.0963397125
 Si        13.8245334451       10.2567705647        6.0639215047
 Si         8.8385410143       11.7891854735        7.0134569242
  O         9.2941162596       13.1661483546        1.8194544653
  O        13.4969840952        8.9680459039        2.7982692696
  O        12.4453978987       14.7385278027        3.0521288211
  O         8.9788851685        8.3115879735        3.3724715568
 Si         9.8200907603        9.5787966344        2.8392898445
  O        10.0442003863       14.6506869550        3.8710968093
  O        14.0820115556        8.8103867550        6.7620206185
 Si         8.3892126416       11.9285129585        1.2909423397
  O        14.3067143817       11.5112862374        6.9906534094
  O        14.5028629053       10.4742532456        4.5986417630
 Si        11.5538223480       14.2306078322        4.2931731393
  O         7.5859955855       13.9778005684        3.8043828223
  O        13.4116134853       13.5084677569        0.9113959047
 Si        14.5586819881       10.1229005332        3.0126896445
  O        10.2242421904       11.9396911956        6.2459390192
 Si        13.9564112522       12.0501150979        0.5716864003
  O         8.3915855260        7.9100975999        5.8631334494
  O         8.5772215392       10.2106370992        7.2441309182
  O        10.3727950966       10.3824160930        4.1118498653
  O        11.0255062263        9.0625832451        1.8988278436
  O         8.8864624838       10.5490813137        1.9691192317
  O        14.1659382753       11.2835920939        1.9771774110
 Si        11.1729740047       11.3312496502        5.1276083672
 Si         7.7761860751        8.8141787985        7.0893641995
 Si         8.8309919219       14.3754358686        2.8372692387
 Si         4.7812990857        2.2453035918        8.6723538164
 Si         5.4462616857        2.8350835037       11.6242101182
  O         3.2266325893        2.5607648693        8.4797422436
 Si         1.6400602820        2.6132610724        8.7141609419
  O         4.2005647694        3.2087070614       12.6027502201
  O         5.0193735917        2.0500073703       10.2666501865
  O         6.3423955354        1.7430041805       12.4312940896
  O         5.1121727408        6.3389195434       10.0482319354
  O         1.3095648098        1.8911675738       10.1314712234
  O         2.8662763796        6.0902128441        8.8756034766
 Si         6.2714731706        5.8538798133       11.0429565806
  O         6.1695248535        4.2476200679       11.2940434746
 Si         1.0493161958        0.7314290837       11.2636087926
  O         5.6921877252        3.5433530021        8.3102483470
  O         6.1887397881        6.8371790354       12.3372991690
  O         1.2303745497        4.1856676787        8.4808096643
 Si         3.8599757969        3.2052094375       14.1981242974
  O         2.1531718443        0.7469569886       12.4385362458
  O         6.8314078864        5.2567868311       14.0795024077
 Si         7.0588834801        6.8064409533       13.7115611703
  O         0.2445980081        4.7806368014       13.6538174843
 Si         6.1463811483        0.3328885190       13.2252775963
 Si         1.8218413668        5.5493749068        7.7964469900
 Si         3.0920854750        0.3821920260       13.7073897473
  O         1.1720877361        6.8502606526       12.5220137100
  O         6.8382447972        0.5067247459       14.6705009920
  O         2.6998099778        4.2856334835       14.4953934761
 Si         3.8106359630        7.1556662762        9.5911239651
  O         3.2955361789        1.7330041472       14.5758163913
  O         5.1097516186        0.9972238066        7.6423918899
 Si         7.1502583369        3.8205294414        7.6535464668
  O         0.8905352804        1.8011089856        7.5247754975
  O         0.7456873322        6.6729821749        7.4093292189
 Si         1.1548495576        4.4175507424       14.9490129720
  O         7.7144691941        6.0903583806       10.3561630623
 Si        14.6638374258        5.9345881058       12.5665113417
  O         7.8199581859        5.2711002362        7.9073289841
  O        14.4095870103        0.9849474602       11.9390910924
  O         8.1493273449        2.7013161423        8.2257085144
  O         9.3928408732        1.0715368303       14.1637847272
  O        13.6571031179        7.0740292511        8.8933311336
  O        14.2469304007        5.5107713946       11.0381421292
  O        11.8748294144        6.5748744606       10.5490799428
 Si        13.1576594707        5.8626237904        9.8652668077
  O        12.7498706958        4.4773394897        9.0703468116
 Si         9.5437589169        1.9254000811        8.2294236850
  O        10.5717056753        2.7986972210        9.1377562231
 Si        12.1966987794        2.9337754925        9.0841541818
  O        12.7562139739        2.3071008726       10.4609562549
 Si        12.8416675543        1.0923082489       11.5284826144
 Si         8.2963946083        6.4632702236        8.9055559712
  O        11.8512743101        1.3213630274       12.8448966475
  O        13.3411863324        6.6746571718       13.0992510064
 Si        12.1773685403        6.9216816842       14.1696144323
  O         9.8914661622        6.7598911057        8.9834860311
 Si        10.9722365758        1.4773067115       14.2532894164
  O        12.5851985983        2.0583407861        7.7254114200
  O         9.3054015995        0.4158028221        8.7328898785
  O         8.6436948243        6.9151219463       13.5026139314
  O        11.5232384773        5.5236088158       14.6576877971
  O         4.5832913420       14.7539393247       13.2518401052
  O         3.0424857367        7.7469393861       10.8747885907
  O         2.4649078059       13.9983061178       14.5773200205
  O         5.0142328227        9.9615746758       14.0746644494
  O         4.2065293832        8.3064891711        8.5435304957
  O         1.1484666877       14.0609925095       10.6297606965
 Si         1.9676343838        8.1508162294       12.0042558611
  O         2.7205044343        8.9634860760       13.1827535970
  O         3.2776422872       12.5879505500       10.0381657291
  O         1.2371269888       13.1047610209        8.3029680360
  O         0.9906785879       11.3568276221       10.1307944686
 Si         1.6826910450       12.7835680099        9.8117367539
 Si         3.6627813535       10.2816865634       13.2285080183
  O         4.8490820215       10.6958247954        9.0395626012
 Si         4.4488819922       11.5124668531       10.3895456520
  O         3.9569775883       10.6273916770       11.6693634457
  O         5.7648271898       12.2615777917       10.8788709023
 Si         4.8546162801        9.5949753958        7.8251906783
  O         0.8333636260        9.1402555151       11.4343302308
  O         2.9616065479       11.5158763434       14.0002958446
  O         6.9145817729       13.9089702315       12.5988725907
  O         0.8303004371        8.9057549241        8.8248964704
 Si         0.4102442065        9.8599200910       10.0733966764
 Si         7.1359416433       12.8665343703       11.4196932327
  O         6.7347392292        8.0811674093       14.6803071674
  O         0.5121522778       12.1851465940       14.5729129846
  O        12.1002208769       10.2761956144       12.0306247008
  O         9.7131063087        7.8248881743       11.3503666873
 Si        12.1768238130       10.2816419133       10.4075523407
  O         8.8937220934        9.4846883491       13.1701689932
  O         7.7467284991        7.8861873864        8.4015198345
  O         7.6808671006       13.7511792046       10.1976058992
  O        12.5193804745       14.5888780553       10.6222935414
 Si        11.7307814567       13.2035343546       10.8410327282
 Si         9.5935736560        8.0566702140       12.9203801824
 Si         8.8914875132       11.0893213095       13.2565391315
  O         8.1540453953       11.6784730696       14.5491015949
  O         9.0501015550       12.5888656137        8.3864490724
  O        13.6460074617        9.8872280195        9.9531540849
 Si        10.7058776415        7.5973558497       10.1239958270
  O        11.9438697226       11.8409691062        9.9637341542
 Si         9.0759961520       13.8073176386        9.4278977524
  O        12.1837965589       12.8421376166       12.3531537311
  O        10.2015873430       13.5814487066       10.5536785704
 Si        11.9441335838       11.4490795438       13.1389951018
  O        11.2093704372        9.1294596115        9.7861807647
  O         8.1553490922       11.7003155984       11.9427244533
  O        10.4079154661       11.5218581955       13.5716510183
  O        12.9173201764       11.2821834415       14.4068337779
  O        11.0404713570        7.8989570242       13.5890065726
 Si        14.7025431853        7.8955011982        7.9585546643
