216
15.01 15.01 15.01
  O         4.4542956831        6.3387267538        3.1271672933
 Si         5.5827787768        2.4455182024        4.4357018960
  O         5.9555252163        1.8728040968        5.8860233714
 Si         5.2700795313        4.9767138200        3.0115308577
  O         5.3964792850        4.0660269309        4.3579606534
  O         4.2182909119        1.8147408845        3.9060008469
  O         4.5516993803        4.0584024849        1.9013457609
  O         1.5767352170        1.7202092836        3.6726245825
  O         6.7252277457        5.3798218063        2.4906661522
 Si         2.9492351029        0.8811179571        3.7021539898
  O         6.7936002912        1.9566113019        3.5157379997
  O         0.6886678495        6.6410237162        4.1425294324
  O         1.2524240676        1.0279119367        0.4625951869
 Si         0.1992354423        2.5075893457        3.4021174795
  O         0.5589815786        4.9309949322        6.2097363334
  O         7.2632047134        7.0295416766        6.4145046394
  O         0.3942021213        4.0398837217        3.8152889218
  O         6.7884336663        0.5496147304        0.3873972907
 Si         0.1243694817        2.1611143272        0.3521216603
  O         5.2327311287        5.3044049332        7.4372175808
  O         1.1862035872        6.0822830509        0.2985607449
  O         4.4464581069        0.0780705365        7.1114707085
 Si         4.5522653191        3.9130617326        0.3106595505
 Si         5.2871818492        1.4634150355        7.2945798463
 Si         0.0269830230        5.2972352063        4.7427520532
  O         0.2169272557        0.3903616995        6.0872660066
  O         3.0515075036        0.1577789456        2.2624082642
  O         1.0211774442        2.5559766070        7.4322509522
 Si         1.1205332582        4.1836676064        7.5208728526
  O        14.7475839248        2.5080785951        1.8701154591
 Si        14.7707906847        6.8495378962        0.4424301608
  O         8.2146469986        3.2094208861        1.8057294531
  O        14.0565139403        1.7319967106        4.2162881338
  O         8.7539960641        5.6249394411        0.9554239188
 Si         8.1775002187        4.7984327413        2.1807101175
 Si         8.2734074387        2.0082524833        2.9124202027
  O        12.2637717748        4.6125930726        2.4956717283
  O        11.1140106615        4.3711348953        4.8434929541
 Si        12.0605668865        5.3250979769        3.9391421737
  O         9.3646816616        2.4184437651        4.0496430534
  O         8.9870000547        4.9346676799        3.5745723985
 Si         9.5860419622        3.9021713818        4.6661793408
  O        13.4364603185        5.4765074650        4.7553579594
  O         8.8341837612        3.9943362275        6.0948826900
 Si        12.3616786704        4.9219655399        0.9096856728
  O        11.4159727816        6.7889101858        3.6723580553
  O         8.6042153085        0.5762296826        2.2711069345
  O        13.7616232995        5.6256975203        0.6353932202
  O        11.2648327334        6.0093469714        0.4746500988
  O         9.7083492682        6.3254990300        6.9468820862
  O        12.6004999403        0.3187659296        5.8719205833
 Si        13.9923326069        0.3406413930        5.0325393097
 Si        12.4020454126        0.6537207405        7.4540032784
 Si         9.1242915031        4.8975215562        7.4215228689
  O         2.5070249736       13.8220731215        0.0750430915
  O         2.9653677175       14.8445810090        4.9225397348
  O         2.4016367308        7.8298396168        2.5753977092
 Si         0.8851215807        7.8727735983        3.1060557949
 Si         3.9456629052        7.8535927180        2.9928639595
  O         4.8348238739        8.9039976367        6.8074571302
 Si         1.8942537043       14.7710935432        1.2129539542
  O         2.7281265584       12.9727903274        6.7196759588
 Si         2.2060124504       11.4526106173        6.4790160766
  O         3.2195450795       10.6335093036        5.5447652315
  O         4.1395929340        8.4541223840        4.4530813934
  O         5.7064873178       10.5566174357        4.9988019554
  O         4.7066573696        8.8386030811        1.9672026911
 Si         3.7647432720       14.0362681016        6.0626507201
  O         0.7877204191       11.3190581921        5.7173790221
 Si         4.4684516687        9.6372626612        5.4450836754
 Si         6.1253009015       12.0947027268        5.2653381144
 Si         5.8845318210        9.4568118826        1.0699541857
  O         4.9207874011       13.1411062986        5.3919996644
  O         0.7745337143       14.0011592844        2.0350594355
  O         6.8831204246       12.1236363345        6.7047350601
  O         6.5653791653       10.7842378693        1.7336537853
  O         6.8823365713       12.5030857026        3.9055006867
  O         0.6351258506        9.2587266076        3.9020688207
  O         6.8814556020        8.2120084035        0.6267965116
 Si         0.0733544407       10.6887744125        4.3989867004
  O        -0.0841914860        7.7439050213        1.7941132506
  O         0.2283159696       11.7885997211        3.2299260518
  O        13.5241780214       10.4812711663        4.6866637648
 Si         8.8188531182        7.5230824228        6.3180168595
  O         7.6593992612       13.2186682424        1.5440491132
 Si         7.4738747798       11.9207121535        2.5110662566
  O        11.0226222178       11.1825549325        4.7096246344
  O         9.2511461869        7.8197142987        4.7939885173
 Si        14.6281001942       13.2064327157        2.7829008492
 Si        10.4146429179       10.8972625439        3.2103324960
 Si        12.1610301610       10.2936287446        5.5006537118
  O        11.6483440632        8.7580878568        5.3903041333
 Si         8.0093827575       14.7185399024        1.0363300471
  O         8.8634660062       11.2467660405        2.9721269086
 Si        10.7319676966        8.1403464272        4.1974150527
  O        14.1383714092       14.0722042813        4.0631806345
  O        11.4176510030       13.9787354871        0.5532714562
  O        12.5043557506       10.6237352615        7.0344389407
  O         9.1446896582        8.8355529720        7.1857005310
 Si        12.0579191362       12.5916887656        1.0491711570
  O        10.6258896875        9.2845388716        3.0452918817
  O        11.1800969792       11.7934787198        2.1246046105
  O        13.4517686591       12.9712896468        1.7243121358
 Si         2.8075804347        1.0491067331       11.5759204912
  O         6.8584205257        4.7149252387       12.3010653311
  O         4.4731241342        4.1411679863        9.6915130432
 Si         3.6010563598        4.1949982417       11.0429598829
  O         1.5686564632        5.2386683477       12.9763270715
  O         4.3789176544        4.9231382029       12.2719058222
 Si         1.5374240999        6.1306196868       11.6595218659
  O         3.0547882933        2.6685433381       11.4111775946
 Si         5.6711850412        5.4867678228       13.0785521831
  O         2.4951583179        5.3129019227       10.6512524428
 Si         6.3111145799        1.5866369540       14.2576730914
  O         6.4084757528        1.3359486741        8.4497909638
  O         5.4880854170        5.0199151544       14.6117490274
  O         1.4222782088        0.5353360909       10.8765064503
 Si         4.1850964335        4.2314365613        8.0964226855
  O         5.9402409206        7.1028034215       13.2107980638
  O         5.7134996076        0.8556102238       12.9735867699
 Si         1.6113894330        4.7489818574       14.4868204103
  O         7.0325324870        2.3518943697       10.8632743650
  O         2.6558275869        0.5516897702       13.1241390809
  O         0.2348708707        4.6966078190        8.7486081486
  O         7.4456858552        2.5059971222       13.5366732981
  O         2.6613729705        4.6181278765        7.7380141528
  O         5.1516364879        2.4826077288       14.9231298686
  O         4.1289146580        0.1640040402       11.0975375230
  O         0.0786996187        6.0299271229       11.0298936559
  O         4.3090696448        2.7076525184        7.5870584144
  O         0.6092214988        3.5057660246       14.6285215018
 Si         6.5294035261        6.2603916163        7.6784942578
  O         3.0444149232        4.1491557088       14.8552646286
 Si         7.5583587682        3.2612614490       12.1039502393
 Si         0.2658930804        1.1238779911        7.5282246587
  O         7.7227972813        5.2482332195        8.2031365425
 Si         7.5545185620        1.4785778976        9.5844392903
  O        11.1629205153        1.6421686607        7.7395586228
  O        13.7437823645        1.4113693417        7.9703615432
  O        11.2417046022        1.2444232485       14.3092235377
  O        10.2397978068        4.1362420448        8.2944827270
  O         9.0679134852        3.6675047004       11.7266282645
 Si        12.4397106723        2.2980427968       14.0827461718
 Si        10.4136892271        2.6015691973        8.8091402127
  O        12.5083502325        2.6672894658       12.5092501359
 Si        12.1415674346        3.5183082251       11.1862730262
 Si         9.7768802447        5.0922169063       11.9662423943
  O        11.2729543130        2.5945855404       10.1729270925
  O         9.1558194419        6.2593973911       11.0234448603
 Si        14.2698014063        5.3173106668        9.8439224193
  O        11.3298268316        4.8459406842       11.6377161706
  O        13.4390330940        4.0610267848       10.4103370645
  O        13.3736832271        6.5448336055        9.2927922405
  O         8.8982000277        2.1106237789        8.9869018312
  O         9.6089740416        5.4596408507       13.5107375030
  O        13.8432671273        1.6388262053       14.5435787609
 Si         9.7931948441        6.2048193873       14.9094599274
  O        12.1914369528        3.5989465996       15.0156855744
  O         0.8707936622       15.0097897448        8.5182654444
  O         6.0324738416        7.5151693265        8.6151006611
  O         1.8791452694        7.7002023797       11.9575544376
 Si         5.2240244788       14.5741366807       12.1803713815
  O         6.1714526216       10.3012487413        8.5250877860
 Si         6.4671552660        8.4066816261       14.0456055862
  O         4.4762830096       13.6757731146       13.2912213434
  O         2.1910778073       12.9821432717       12.5820069011
  O         3.1426548165       11.4152517634       10.2433765885
  O         3.9856751913        9.1438115604        9.2254923288
 Si         2.9269630570       14.0096312077       13.5618056083
 Si         2.0713781710       11.9907862243       11.3330793626
  O         1.4958259975        9.3134721530        9.9439339171
 Si         2.7302056769       10.1526805458        9.2970871126
  O         6.4042432250       13.6834785964       11.5809856870
  O         1.1593079871       12.9093601078       10.3225677772
 Si         1.2594040361        9.1597650023       11.5419398704
 Si         0.6148896361       14.4089399300       10.0064756141
  O         1.7828067220       10.5829727771       12.1201315984
 Si         5.3079274372        8.9481868553        8.3304932078
 Si         7.1275914954       11.5631086798        8.2017463066
  O         5.4053036036        9.6005448845       14.4838220702
  O         2.1904342490       10.7061739274        7.8967508212
  O         7.0310866141       12.7318277837        9.3006760317
  O        12.2705659688       14.2402173312        8.2056474162
  O        10.8330008533       10.1614184793        8.9181331646
  O         9.0769576818       14.7039000432       14.8539485995
  O         7.7372280439        9.0539713359       13.2788978309
  O         7.9875281856       15.0273938795       10.0829761928
  O        11.0942584007        7.5811964451        9.8529845894
  O         8.9748141675       12.9004433141       11.2502794448
 Si         9.3657671748        9.6365452355        8.5632677788
 Si        10.5236647163       13.0406550980       11.7579222494
 Si        11.5126034306       10.7724712761       13.6033238409
 Si        12.3800883294       10.4717604001        8.6439196168
 Si        12.6734361565        7.7872346152       10.0494699340
  O        12.5159529764        9.5439967487       13.3670004555
  O        10.0759944273       10.1834909586       14.0690755922
 Si        13.6009906453        8.4782275052       12.8606872292
  O        13.1306231625        9.2136520106        9.3752937097
 Si        10.6181685754       14.7731552500       14.4179342732
  O        14.0033809230       14.2192126191       10.1685502400
  O        14.7658340197        9.2186580536       12.0512314792
  O         8.6105540478       11.0225645129        8.3658280014
  O        14.2327138919        7.6677245785       14.1377821706
  O        10.0042998092        8.4504093760       12.1202716708
  O        12.1951147098       11.6535164309       14.7597030231
 Si        12.6850746051       13.4663715051        9.5607219945
 Si         9.3240691127        8.8712390356       13.5209713488
  O        11.4261375985       13.6002019461       10.5549651561
  O         9.5399192849        7.7498266485       14.6381568845
 Si         9.7417992760        7.7352008280       10.7009778021
  O         8.8223890684        8.6821566298        9.7674230866
  O        12.9028235747       11.8841392722        9.2416053289
 Si         7.6426580253       13.5396460951       10.5556877184
  O        10.6394018710       14.0754031682       12.9767550119
  O        11.1807616074       11.6454146186       12.2732348721
  O        12.8983936586        7.6534805944       11.6567450505
