216
14.912 14.912 14.912
 Si         3.6212559644        5.0726581311        5.3881064424
  O         4.0600800330        5.8769332972        4.0515232213
  O         2.6599122187        3.8918796848        4.8026274282
  O         2.5634945900        1.3313560261        4.9001494876
 Si         1.6397879956        2.6570732766        5.0425060798
  O         2.7311348417        5.5514714070        1.7374081573
  O         4.9663310156        4.6348578040        6.2211621793
 Si         3.4468754449        2.1674291392        1.1549438763
  O         5.3806224151        5.0519167053        1.9043327057
 Si         4.1331985604        5.9219665413        2.4390758878
  O         2.2200171861        3.2365558123        0.9908166204
  O         3.4709447646        1.4156664685        2.5666878279
  O         2.7198295920        5.9634199424        6.3773162685
 Si         3.8035722613        0.7925585588        4.0069673104
  O         5.2986771688        1.3243005132        4.3052184700
  O         1.0860791900        2.8184292107        6.5306184283
 Si         6.7291848754        0.8731374559        4.8877277947
 Si         1.7239364776        4.7850648769        0.7584588440
 Si         5.9504476173        4.0605045455        0.7774447828
  O         4.9016425756        2.8129090367        0.8261220652
 Si         6.3383125521        4.9001865380        7.0695502775
  O         0.2191034090        5.2888760351        1.0902184754
  O         7.0535289702        6.2109843461        6.4510206111
  O         0.2386429261        2.5611665651        4.2154213419
  O         7.4525971009        3.7271415483        6.8742407935
  O         3.1460265937        0.9725663053        0.1551963793
  O         0.4277836710        7.2787238208        6.8948426299
  O         6.4680296766        0.4179496877        6.3953061069
  O         4.3872149017        7.3823102771        1.9103583879
 Si         0.0422304423        1.9185065221        7.3525998250
 Si         1.6955431181        6.4603749164        7.5163413593
  O         7.5118772186        3.8107320216        1.1544640497
  O         7.7023338658        2.1464365997        4.8955734476
  O         9.3557636591        1.8227319802        7.0472068334
  O        10.1150003658        3.5644894248        0.2437554031
  O        13.9257848942        1.0802388098        6.3863921292
 Si         8.5728116643        2.8703012632        6.0484063262
 Si         8.9504522578        3.0530092963        1.2175804913
  O         9.7907829656        3.5683890542        5.2099376448
  O         9.6927739656        3.3025181786        2.6449261340
 Si        13.7316828896        2.8454923786        3.4525367790
  O        13.7630283613        1.7560182656        2.2400908993
  O        13.9150998784        4.3777962891        3.0740599407
 Si        13.7044289035        5.3580034705        1.8434836327
  O        13.3228268319        6.7937136556        2.4901266399
  O        12.1742737335        2.8870897860        4.0449594631
 Si        10.5207582120        2.8156940890        3.9609249143
  O        10.1946853639        1.2443740745        3.9801081471
  O        12.5050828459        4.7961842120        0.9155616870
 Si         8.3587161922        7.0435520468        6.9123082417
 Si        13.7655471479        6.9012320293        6.7564238596
  O        13.4129113609        6.9582221527        5.1949228782
  O         8.5322132023        1.5786453046        0.6674506061
 Si        13.4999816414        0.1790703121        1.9834530627
  O        13.5991912394        5.4004297196        7.3740334883
  O         9.4410926800        7.2799015026        5.7261034222
  O         6.2166389185       12.7697171818        6.4689194384
  O         4.7990802675       10.5934613275        6.7075423604
  O         3.8936973564       14.0941881648        4.2258028238
  O         2.9743976112       11.6021418106        0.7539422109
 Si         5.1115432775        8.6266820163        1.2732773325
  O         4.3132268549        9.8435269470        1.9824040535
  O         2.8943387472       12.1059238412        5.8854133641
  O         3.3194124365       11.6732829744        3.3858928790
 Si         2.9725291473       10.7397052107        2.1305988328
  O         1.4944270959       10.0316153943        2.4045436762
 Si         2.9390395127       12.8047197225        4.4409539836
  O         6.6973469867        8.4544719095        1.5749997338
  O         1.4831709910       13.3471787033        4.1367043522
 Si         6.2893170751       11.1553318531        6.5453571413
 Si         7.0574116324       12.8706878200        0.7166581937
  O         5.4555964133       12.6663063970        0.5793294263
 Si         3.3907356541       11.2373461141        7.1369658113
  O         6.9545783502       10.3620396355        5.3006544491
 Si         6.6228167182       14.0670934086        7.3591506388
  O         7.4627599027       14.6040412341        4.0874459452
  O        12.6755907155       14.0095740324        7.4308603189
  O         7.5454075242       12.9228223062        2.2356587673
  O         9.9224285013       13.7549532858        3.3115535999
  O         7.4473737923       14.2442727750        0.0065499296
  O        11.4273191377        9.9290695939        0.5871912507
  O        11.9310962621       14.9097179092        2.3200334541
 Si        13.0477354119        7.7122251950        3.8121652326
  O         9.1941447547        8.6147791980        0.8349097436
  O        13.9341353022       10.2040195831        1.4324294383
  O        14.5762138903       11.5553387993        3.5781775850
 Si         8.1925913311        8.7488145511        2.0925540087
  O        14.1793310538       13.4175966216        5.4638063975
  O         8.0472265942       10.1913592547        2.8289147350
 Si         8.2697402149       10.6009298540        4.3851443219
  O        12.0113126744       14.6655428370        4.9594502890
 Si        11.0432565953       14.8394495867        3.6677540010
 Si        14.8388506531       13.0778969143        4.0373751461
  O        14.0885063719        8.9633093350        3.6452768278
 Si        14.7994803655       10.1609726431        2.7850177133
  O        13.9152041902       14.5783540555        0.5085010715
 Si         8.3611510955       13.4056791823        3.5281575716
  O         8.5230114986       12.1708990359        4.5497734474
  O         8.8631154055        7.7882423695        3.2289044024
 Si        12.8333056975       10.6638287217        0.3765319713
  O        14.3255526625       14.1657194426        2.9862972787
  O        12.5979395307       12.2729652767        0.4116038772
  O        11.4381944892        8.0405500445        3.9749755849
 Si         9.8816822729        8.1716654720        4.4470470741
  O         9.5279027809        9.7023587073        4.8809901497
 Si        13.2063465419       14.5588116473        6.0411666578
  O         5.5344632196        5.0679002820       11.4141828677
 Si         6.0576732937        5.9040185283       10.1243380920
 Si         0.8041515688        4.6989254172       12.8248610950
  O         1.5670609580        3.3944906529       12.1746331556
 Si         6.2908295524        4.3089802078       12.6279363072
 Si         1.2408334961        1.7796540144       12.1483055249
  O         5.8843996547        2.7958855206       12.3481542140
 Si         6.0706281103        1.2132880528       12.3591333027
  O         1.0822238651        1.3310218768       10.6106364225
  O         2.3873983323        0.7593796034       12.6728306050
  O         6.0547517626        5.1276730797        8.6856972808
  O         3.4711487928        0.8353269196        9.4419747559
  O         0.9987326132        0.8989100516        8.1282677492
  O         5.8850098796        4.6457084611       14.1637721577
 Si         1.8487334400        0.5332734663        9.4368569598
  O         1.7442718083        5.1314689576       14.0740775557
  O         4.9657477292        0.4968891254       13.2626579151
  O         1.0634626840        5.2167106052        8.3685689270
  O         5.8083335044        0.6669494551       10.8586211101
  O         5.1476532494        7.2118499180       10.0234516972
 Si         3.4658473028        0.1784150250       13.7296621799
  O         0.3179985013        5.9796171187       11.9164647861
  O         7.5371444247        0.9973872279       13.0091088017
 Si         4.7846347424       -0.0645253940        9.8556448605
  O         7.5412426719        6.3958971252       10.5889979591
  O        14.7519655932        1.6418504620       12.9977684795
  O        14.2505605908        3.0334683203        8.2901653587
  O         7.8791793850        4.6456437241       12.4444000877
  O        14.2478176967        4.1398843977       13.2510706447
 Si        14.4493596981        4.6222337427        8.5303243510
  O        13.9095450133        4.8860893602       10.0387965474
  O         9.6065281229        4.8838143888       10.4372444890
 Si        13.8222485518        6.1573288673       11.0690318071
  O        12.8435646840        2.5725043757       11.5167828893
 Si         8.6806498267        5.6712289798       11.4775749265
  O         8.8727729999        1.0866420812        9.3650260430
 Si         9.7585017264        2.2575209066        8.5787401509
  O        11.0822702520        2.3131881575        9.5104467450
 Si        13.5247681009        2.7178278474       12.9803412256
  O         9.6993807791        6.7050879901       12.1822589571
 Si        11.9619148814        1.5672466430       10.6288728473
  O        11.4511835332        6.0515755319        9.0378395693
 Si        11.1586230296        6.5976202551       12.9161181781
  O         9.7777935216        3.8613841444        8.2139671660
  O        12.5109427380        6.4587723383       12.0114165874
 Si        10.0356265926        5.2814562315        8.9339934903
  O        11.0243445166        0.7493863471       11.6671327263
  O        12.3430242801        2.7519133243       14.0898043517
  O        11.1863671650        5.1985306744       13.6690405765
  O        12.8426307786        0.5807552116        9.6981281787
 Si         8.3190421669        0.5377075282       14.3585786513
  O         9.1065386399        6.2980078544        8.1190173883
  O        13.5937296927        7.3798305459       10.0119820081
  O         9.7823412736        0.0867375723       13.9133377724
 Si        11.5722081916        4.0642998959       14.7198124351
  O         2.5643977511        7.4584334107        8.4401089064
  O         2.4121862566       10.0278611118        7.6195996690
  O         5.6399928878       14.3952305161        8.5841833043
  O         3.5512227534       12.2590351450        8.3703180206
  O         4.1340571064        9.4363528641        9.4345348519
  O         1.7413877664       13.8403263956        9.5318855937
 Si         2.6777815832        9.0004801151        8.8635921591
  O         4.9808613585        9.1099384958       11.8795416214
  O         1.5697261567        9.1976297804       10.0270631027
 Si         5.3082727430        8.7861894740       10.3282668293
 Si         2.9242322323       12.7669448436        9.7629523606
  O         4.1425914467       13.5086585874       10.5277824591
  O         2.2470424507       11.5967431434       10.5960604572
 Si         5.2989668681        9.6897989621       13.3506352079
 Si         0.9973793733       10.5894625356       10.5802531726
  O         4.5541647437       11.1086250539       13.5871566825
  O         6.7936436513        9.2791477996        9.8655530976
  O         6.8970788035        9.8433869726       13.4132546728
  O         0.4775218338       10.5963224647       12.1060474879
  O         3.3985653180       13.5024473789       13.9892260635
  O         4.8904134144        8.7044401085       14.5758731205
  O         7.1253401764       10.8712387758        7.8761372883
 Si         4.1070120970       12.2250213370       14.6808466343
  O        12.2553137096       14.3376270020       13.5767632839
 Si        13.1523951312       11.4600422163        9.9407197415
  O        10.6672714639       14.1693181133        8.9400328498
 Si         9.0716590539       14.3853275257        9.1198017519
  O        11.9994260863       10.7630440686        9.0381989152
  O         7.8707675622       11.6763579372       14.9226868611
  O         8.6953790834       13.3319679699       10.2900144707
 Si         7.7409832465        9.5791695242        8.5748047677
 Si        10.8665981784       14.5632167628       12.8309472408
  O        13.4202340367       10.2527362575       13.8474363297
  O        10.1815402777       11.0170830080       10.8461591242
  O        12.7571195224        7.8611315838        7.6255430641
 Si        14.0264242524       11.2010833709       12.7168779728
 Si        12.2206552848        7.4887684509        9.1254937030
 Si        13.2740905959       13.4653435148       14.4373270769
  O         8.1491747601       13.9262569955        7.8765293978
  O         7.7057018193        8.3686613906        7.5336150466
  O        12.9381255565       11.1850586280       11.5194853149
  O        10.4582319075       13.1658018208       12.1813068191
  O        11.1918259811        8.5296788827        9.8473055990
  O         8.1986942781       11.8443272388       12.3350565602
 Si        10.3221278259        9.0715395596       14.6899478545
 Si        10.6539134207       10.0551380398        9.6374789227
  O        14.6692091619       11.0163208333        9.6122221985
  O         9.5271722015       10.0268124851       13.6601356008
  O        12.9927975663       13.0252052782        9.7731478010
  O        11.1035393519        7.8723553722       13.9211552255
 Si         9.3797822696       12.3266586957       11.3608531918
 Si        12.2764130754       14.1789025140        8.9539800888
  O         9.2980388166        9.9290234421        8.7898985845
  O        14.2534792710       12.6699295989       13.4072975683
 Si         8.1356339615       10.8354329673       13.5838740222
