216
14.858 14.858 14.858
 Si         3.2454819482        3.3113732547        5.7581251933
 Si         4.1240420502        4.2907675907        2.8510036461
  O         5.3725900828        3.2775961047        2.7383188367
  O         3.3205865881        3.9746464109        4.2578986589
  O         2.4882819637        1.8899978847        5.6061958081
  O         4.5381001411        5.8547820440        2.8057372594
  O         3.2888320424        4.1161547687        1.4825607496
 Si         0.9790886553        0.9225096957        1.9201853257
 Si         6.3151241638        2.1078708416        2.1478044854
 Si         6.1482356845        2.4227582187        6.4932981135
  O         4.7553375851        3.2175202332        6.3460177598
  O         5.9428161917        1.0016636071        5.7785287810
  O         1.9795266580        1.8994244725        1.1550857533
 Si         2.0398489597        3.4402449479        0.7420570284
  O         6.1916033727        0.8273140983        3.1532572676
  O         0.7465106930        4.2169111814        1.3209557797
 Si         2.3971436818        0.5472381216        4.7203974373
  O         1.5600566243        0.7480659458        3.3822905679
  O         5.8670029011        1.6498992386        0.6528745886
  O         5.2055426768        6.6020062583        5.1152815598
  O         2.3871741944        4.0447117533        6.9262049958
 Si         4.3737040998        7.0774263939        3.8277378972
 Si         5.4892307156        0.1783961595        4.4763399475
  O         7.1804853447        6.3556382253        6.7672628771
  O         6.1848546637        7.0217885897        0.3378018418
  O         3.8904235076        0.1654172066        4.2917126729
  O         7.3612965775        3.2227234930        5.7837837540
 Si         7.5193867386        6.6498080702        1.1286399525
  O         7.4328917788        5.1059997948        1.5657628206
  O         7.8472495731        2.6454349625        1.9718052276
  O        14.2885399307        6.4409090778        1.3201406206
  O        14.3681386954        1.5748001800        2.0506994405
 Si        14.3007801657        4.9220522648        1.9407319486
  O        14.1228831985        5.2033702198        3.5514322218
 Si         8.6174676329        4.0078878891        1.5606056350
  O        11.5446669361        5.5434734079        3.9655988180
  O         8.9261746344        6.1213700468        4.3693953059
  O         9.9066040677        3.8795215783        5.2023361793
 Si        10.0463373606        4.9883593341        4.0574804260
 Si        12.9200680022        2.2488393364        1.8012011424
  O        13.1031731790        3.8565049757        1.6533111682
  O         9.7431735421        4.2957396582        2.6524320077
 Si        12.9815068299        6.2309830063        4.1309390767
 Si         8.8889201346        3.3602078406        6.3306996014
  O        11.9587840178        1.7177722339        2.9792802411
  O         9.3998910043        1.8971647895        6.7767016950
 Si        10.1304656872        0.5677720238        6.2140657768
  O        13.1243747975        6.7676801319        5.6106972257
  O        10.3093729034        0.6787880767        4.6318083982
 Si        11.0446521592        0.3990932934        3.2510997794
  O        12.2242265217        1.6479720661        0.4779732015
  O        11.5579834430        0.4984303296        6.9435730137
  O         9.4736234627        4.2511949137        0.1704228414
 Si        13.5267649647        6.6338988833        7.1405785095
  O         8.0851805082        0.3397420741        0.3322408046
  O         9.9108400702        0.1616838312        2.1397926887
  O         8.8312427441        6.7689002097        0.1622519537
 Si        13.1047246121        0.7130132263        7.3350083249
  O        13.9593277823        0.0836480276        6.1067003085
  O        13.1889229279        7.5950864263        3.2988875756
  O         8.9019446886        4.4711183088        7.5114459834
  O         2.8227659883        7.3202397076        4.2039658193
  O         0.9237810866       14.4135036865        1.0612749166
 Si         6.2635949720        7.4201224979        6.0065137520
  O         1.5618169053       14.2762757038        5.5165683110
 Si         5.2564635814       10.8415712119        0.7123275911
  O         4.9504815176        8.5107518003        3.3097866028
  O         5.4400837736       10.8898674735        4.5346496000
  O         4.5416185252       10.8882320395        2.1466905118
 Si         4.4537719852       10.0582098730        3.5117874301
  O         2.8681256278        9.8894532635        3.8886625449
  O         5.8608701435       13.5290587041        4.8664861948
 Si         1.8526190660        8.5951749986        3.9809104796
 Si         6.5223843996       12.1266546555        4.4698424701
  O         0.8264879594        8.7532581160        5.2047866054
  O         0.9126995426        8.2526913486        2.7127775814
  O         6.8600311810       11.0569894188        0.8187762977
 Si         0.8845701853        8.7175782649        6.8200531621
  O         5.2791937760        8.3460017994        6.9311626562
  O         7.0212170430       12.3797235247        2.9677657494
  O         2.4542723074        8.5055292699        7.1664250596
  O         7.3475579122        8.1708010058        5.0265409401
  O         0.1559378652       10.0819188191        7.3308816498
  O         7.6720665723        7.5158401662        2.4724751186
  O        14.7758706207       12.3739444731        6.1091588347
  O         8.8996361366       10.6446475854        2.5394362394
  O         9.2390625574       14.0998486074        6.4398731496
 Si         8.3956279354        7.5849513557        3.9166983721
  O        13.1264807329       11.5320379205        2.6327232634
 Si        10.1859825257        9.9126718434        3.1604800620
  O        10.7291821012       10.6416007153        4.4843893099
  O        14.3777542553       13.5454025430        3.8646395297
 Si        11.0465967245       10.5414864369        6.0683287315
  O        10.7464010318        9.1604532459        6.8550900067
 Si         9.3150223827       14.3152762161        0.8317677152
  O        11.3016799149        9.8284449898        1.9895332728
  O        10.0737779255       11.6463022652        6.7646226449
  O        12.6540542749       10.7340682658        6.1106838763
 Si        13.9594696554       11.2476602639        6.9098192243
  O        13.3704132293       13.7031156157        1.3279096702
  O        13.7882610927        9.1658469586        1.4017554852
 Si         7.9329267862       11.7122737613        1.8310737505
 Si        14.8713984741       13.8027914426        5.3923927359
 Si        14.5108852595       13.8966671653        0.2067744400
  O         9.7173306899        8.4741669472        3.7083965541
  O         8.8350094292       12.7991883777        1.0820196482
  O         7.8476815058       11.9084157256        5.3791793566
 Si        13.2045260321       13.1391454872        2.8288330372
 Si         8.7477483920       12.5611190068        6.5785792251
 Si        12.7448666235       10.3875420950        1.5291068718
  O        11.8797007018       13.8685940068        3.3862255168
 Si        14.2951384728        7.8551714195        2.1595116969
  O        14.8635609553        7.5018526052        7.4264315046
 Si         3.4986334604        1.7834804059       10.3143935829
  O         2.7322938150        5.1129918764        9.2538119919
  O         2.7300307616        2.4739674545        9.0751248659
  O         5.0695925276        1.7208452395       10.0568536921
 Si         6.4202867398        1.2592530063        9.3246990072
 Si         2.0076898677        2.3671582271       12.6904288373
  O         3.2239816642        2.6451465799       11.6602471958
  O         5.2708925821        5.5327795822       10.0714314885
  O         0.6545998148        2.7278128134       11.8779345562
 Si         3.7727361099        6.1551145307        9.9083756188
 Si         2.0594678127        3.8436013442        8.5128974185
 Si         6.8081129398        5.9373463078       10.3588742217
  O         1.9887873346        0.7472057693       12.9619322603
  O         0.4611687216        3.7179622482        8.8247403067
  O         3.1383805627        6.6106005013       11.3130411466
  O         2.1358056241        3.3641517586       13.9734183394
  O         1.5533471477        6.8355601725       13.3791168541
  O         6.5999570751        2.2253798162        8.0362444999
 Si         6.6676957145        0.6425302061       14.5195210271
  O         2.9858119150        0.2694190994       10.6326359261
  O         6.9251483721        1.2324504848       13.0356430807
 Si         0.0925587134        6.7379453004       12.6299650864
  O         6.8384346046        7.3392039276       11.1495921652
  O         7.5967266579        1.3255553932       10.4312507743
  O        14.7624148720        5.1341650266       12.3063464000
  O         7.7798391494        6.2712076491        9.1477474043
  O         7.5205497760        4.6234214840       10.9771614997
  O        11.1487352874        6.2735720202       13.8707293058
 Si        14.2274979075        3.5874087697       12.3272738479
  O        12.8717363433        3.4737033544       11.4716001543
 Si        13.7977161553        3.7634178004        8.2279977790
 Si         8.1310460723        1.3792259068       11.9594876929
  O        13.7116236888        2.7527980221       13.6316613020
 Si        12.9204027860        1.3563339821       13.9123352128
  O         9.1536863603        5.3735688905       12.7130142403
 Si        11.9144643532        4.4739901463       10.6358034447
 Si         8.9706533602        4.2499893579       11.5869193672
  O         8.8354977624        2.7957989328       12.2203111790
  O        12.0619211995        5.9418017801       11.3195988688
  O        10.3116986252        4.2075031667       10.6465381892
  O        12.5455740438        4.2178812180        9.1712158435
 Si         9.6818020834        5.6544590217       14.2007510990
  O        11.7975277376        0.8217181393       12.8691259047
 Si        12.0175311277        6.9105253663       12.6395742159
  O        13.5030192951        7.0914233733       13.2811116190
  O         9.6901498149        6.9889473588        7.6032237256
  O         9.2511046506        0.2484196138       12.2211880818
 Si         8.4259101970        6.0040159956        7.7251790740
  O        14.0240627136        0.1739039937       14.0334232249
  O        13.4545334390        2.2961033773        7.5936775108
  O        12.2981953445        7.2594612732        8.0048914193
  O        13.8520137732        5.0538629323        7.2606959766
 Si         2.8938407187        7.4726460201       12.6555926902
  O         3.9599370831        7.4558886123        8.9873952208
  O         4.2941002531        7.4343080034       13.4543518393
  O         6.3559578560       14.6210552189        8.7482249729
  O         5.8644765957       14.1249176291       14.4432719788
 Si         3.9285727099        8.5765371527        7.8449140045
 Si         2.6258225699       14.4083042947       12.0467461002
 Si         5.5782248685        8.1087122994       14.1822779353
 Si         5.0452529671       13.0358908444       13.6165314262
  O         1.7290257276       13.1124483135       11.7178052034
  O         2.4506976654        9.0184127253       12.3788596098
  O         4.6077687826       11.3084159967       10.6503763759
 Si         1.3709700883       12.1783743612       10.4382229366
  O         6.0323711346       12.2147118124       12.6422838135
  O         2.5633394692       12.1246600519        9.3337103110
 Si         4.0329938622       11.4804826740        9.1518454432
 Si         6.1020490936       11.5075219974       11.2151873677
 Si         6.5361903572       13.0339298434        8.7543765366
  O         0.9909384673       10.6524429369       10.8993106546
  O         3.9004163754       13.7899172088       12.7983274765
 Si         0.9177697629        9.4695635990       12.0152265376
  O         6.8728631392       12.5303554836       10.2451265065
  O         5.1066600063       12.3835177623        8.3354422485
  O         6.8467416525        8.5855109254       13.2958643747
  O         3.9723212240       10.0642437988        8.4222213837
  O         6.7783574296       10.0616530780       11.2129088235
  O         4.5255207351       11.9677381480       14.6921113286
  O         0.2485957061        8.0145556673       11.5606497172
  O         0.0851207162       10.0714402496       13.2896301758
  O         0.1564501574       12.9563897891        9.7497534002
  O         5.0163457177        9.3972048411       14.9385415425
  O        12.8008699626       10.9662760625       14.8734714983
  O        11.4735949076        8.3236706491       12.0589958211
 Si        10.5924168674       14.5709547428       12.9477890345
  O         8.9991164835        8.8340414332       11.5607636241
  O        14.7728761896       12.5247207220       14.2664147053
 Si        13.9064943165       11.2544046839       13.7163583675
  O        10.4020131036       14.2832986646       14.5197961455
  O        12.3779258006       12.8795112845       10.3118687757
 Si        10.8591844019        8.0303254868        8.0090731016
  O        10.6489583950        8.6631711135        9.4942344358
 Si         7.4096150836        8.7015293211       11.7914467946
  O        10.8936494603       13.1280711800       12.3066840981
  O        13.3796069759       14.6657507211        8.6547529544
  O        13.0516346803       11.5617393576       12.3930694964
  O        13.2886105437       11.9701556064        8.1695451523
 Si        11.7765681953       12.0361329927       11.5367512330
  O         7.7564995847       12.5448686363        7.8447693263
  O        10.8965564656       10.7265739954       11.1420512619
 Si        10.5077675575        9.1465838541       11.0438054107
 Si        13.5152196830       13.1532415705        9.2265429713
