216
14.871 14.871 14.871
 Si         4.4277801092        4.1200132823        5.1317933422
 Si         2.8706596548        2.2167950720        3.4076123313
  O         3.3033993847        5.2195866901        4.8043003512
  O         3.8003929859        2.7162033373        4.6276396346
  O         5.7953029369        4.2988828481        4.2962302484
  O         3.5460457208        1.1586953747        2.3971840533
  O         2.4721875261        3.4704929024        2.4789453854
 Si         1.4528349817        3.8737738785        1.2896581054
  O         5.7787971519        5.8865893935        2.3099378981
  O         1.5779008421        1.4948027925        4.0409104239
 Si         6.4236585105        4.4692459864        2.8099739663
  O         1.1578827275        5.4403976809        1.4780017571
  O         6.2782236190        3.0516965969        1.9941116776
  O         1.6463923899        6.8553141912        3.7076293340
  O         4.7795416969        4.2959692380        6.7019880610
 Si         0.5617502748        6.4191344789        2.6026788613
  O         5.9420304198        0.4911505250        1.6555865296
 Si         6.9680562590        1.5688582344        2.2611515642
 Si         2.9555805813        6.7770564254        4.6233892321
  O         0.1664445332        2.8938487782        1.3253676331
  O         0.0793884716        0.4240735530        2.1407310071
  O         7.1013485222        1.8973982888        6.6078050538
 Si         0.7116701065        0.1963534691        3.6352790247
 Si        -0.0337113943        1.3758010041        0.7851820011
  O         7.1891576225        1.4084813786        3.8783670872
  O        14.6221863947       -0.0051721104        4.9446745780
  O         8.0201679398        4.6186202120        2.8013231947
  O        14.2090054572        5.6076945483        3.2346337977
 Si        14.1921778255        6.4275802791        6.6867988095
 Si         7.9808205374        1.7880423541        5.2584172527
  O        13.9596931432        5.1043702018        5.7759049977
  O         8.3462907549        1.1658579057        1.4930587718
 Si        11.6820802120        2.4678379257        3.3530264243
  O        10.4224275329        3.4756446858        3.0603733875
  O         9.4324423395        5.6235493565        4.5468599281
 Si        13.2847745141        4.8934712712        4.3117174114
  O         8.6730354894        3.2078385130        4.9653169349
  O        12.9593502177        3.3866962702        3.7997843181
 Si         9.1820868517        4.2139683271        3.8199069113
  O        11.3153661101        1.5604461538        4.6251238493
  O        11.9737847711        1.4056015404        2.1576991594
  O         9.0836900691        0.6632441680        5.6123780307
 Si        10.7008432658        6.0124517548        5.4351900512
  O        11.9130351076        5.7056514572        4.4534256016
 Si        12.0310541904        0.5467300821        0.7599713442
  O        10.6671492172        5.1182556026        6.7766573387
 Si        10.5404873529        0.2371790893        5.0786699401
  O        13.3834663116        1.1627239422        0.0937544728
 Si        14.6192222198       -0.0428520691        6.5759499427
 Si         8.9555780921        0.6695352389        0.0607891417
  O        10.5766326234        0.7423423779        0.0870905953
 Si         5.5532765234        7.3730532838        2.9797826168
  O         4.2287827642        7.4276073283        3.8920854392
 Si         4.5530444343       14.7918998601        2.2160971198
  O         2.6447026433        7.5115965593        6.0272393437
 Si         2.7568911972        8.6281870782        7.1926919310
  O         4.9528031316       14.2913934554        6.4241720522
  O         4.8790806055       14.2777102968        3.7093212980
  O         5.3763684671        8.5988482995        1.9641606540
 Si         4.5603958790        9.1210486157        0.7030773351
  O         2.3932929085       11.2400453838        3.0500471972
 Si         2.0417313416       10.7072456628        1.5624969898
  O         6.2103889677       12.5404508464        5.2049988525
 Si         4.9003263484       13.4268537569        5.0674685381
  O         3.0565042076        9.5082200158        1.1589126218
  O         1.0923604462       11.9824594663        5.2639194181
 Si         2.1767144602       12.3905705006        4.1524646046
  O         1.6624015725       13.7614154104        3.4719579603
  O         3.5532876037       12.5557386450        4.9693791720
  O         3.9676539765       13.7202597480        1.1576634677
 Si         1.2366884415       11.1245245016        6.6202120900
  O         6.8616322687        7.8399938756        3.7972922684
  O         0.5017848286       10.2424232585        1.5007589254
  O         2.2274302092       11.8909955168        0.5044461206
  O         7.0352044873       10.1764888044        4.9622820805
  O         2.4656512853       10.0882354237        6.5973590169
  O         1.2493498118       14.6251510202        7.1834823643
 Si         7.4030773163       11.5834842986        5.6692455859
  O        -0.0692681541       10.1712243959        6.5546327125
  O        14.8800598656        7.7437318656        1.9062996289
  O         7.5953893050       11.4140461624        7.2792697583
  O         8.7491543814       12.2267701443        5.0423916928
 Si        14.3874024715        9.2255113121        2.2795619705
 Si         9.9269080628       12.4782075227        3.9709256299
  O         8.5844178652        8.3384798754        7.1843129493
  O        13.7088284430       13.6304260117        7.1833291524
  O         8.0091554140        9.9149901194        2.4602946776
  O        10.3264502347       14.0395098989        3.8826793752
 Si        11.8132964410        9.7518471626        0.5993171344
 Si         9.6525064995        8.6811314185        6.0586256882
  O         8.4255254502       11.4748425968        0.2393034940
  O        12.8765189807        9.3278311684        1.7376025331
  O        10.2507954001       10.0815267386        6.5202743924
  O        14.4594497083        7.6904603976        5.7077572347
 Si        14.1016234280        9.2498787133        5.4166027331
  O        11.1668204465       11.5759352164        4.4821314853
  O        10.3347825652        9.9110553877        1.2329286397
  O        14.5368328939        9.5013025343        3.8754138442
  O        12.3117047511       13.8010834408        0.5857397949
  O        10.7416549317        7.5179324713        5.9468360003
 Si        12.1032914373       13.4565615437        7.2917023429
  O         9.1532032863        8.8318068302        4.5377841747
 Si         7.7317124532        9.1917886704        3.8872366179
  O        11.9008556639       11.8923804533        7.0144229874
  O        12.5609980194        9.6672812779        5.5377756288
 Si        11.5143095181       10.8324861960        5.8799877597
 Si         9.0422618936       10.8077597025        1.5864330774
  O         9.5045461412       12.0643654135        2.4855457007
  O        11.4008470111       14.3752168350        6.1928198368
  O        12.3893253007       11.1644105035        0.0838797867
 Si         4.5515446709        2.1771898690       12.5191766578
  O         4.0526148638        3.6289553162       12.9724012103
 Si         0.9699228227        4.5821023237        8.3867612023
 Si         2.8261389461        4.4672339144       13.5585419035
  O         1.8982820715        4.8883867905       12.3371656056
 Si         0.8627846776        5.5157486214       11.3087977304
  O         4.2943110610        4.0375775933        9.3306311644
 Si         4.4912583171        6.7598110801       13.5097198160
  O         5.9891971957        1.8954642425       13.2333731361
  O         5.8842482466        6.0293093377       13.2152106228
 Si         5.5991835452        3.5446169679       10.0888493771
  O         5.0377655571        2.3180555747       10.9844787786
  O         3.3076082951        1.1751231127       12.8068759434
  O         6.6746677152        3.0607767890        8.9983563749
  O         3.4588057327        5.7733168709       14.2146009732
  O         0.9932154478        4.6263229771        9.9872584732
 Si         3.9416866480        4.8217754657        7.9965099340
  O         6.2643063110        4.7924047621       10.8897651259
  O         4.2052800604        6.3600518256        8.4234667549
 Si         6.9990513550        1.6965396323        8.2122420007
  O         2.4090199301        4.4636397160        7.6902038057
  O         5.7803871351        0.6684776749        8.5105783845
 Si         1.8857582544        0.4835122094       13.2572228343
  O         1.1558313149        7.0203762546       10.8178101208
 Si         6.9742771423        5.3874345164       12.2205475366
  O         1.0650848418        1.1558097413       14.4852518690
  O         0.4071313986        5.9534035282        7.7630251880
  O         0.0773731424        3.2973089829        8.0959822372
  O         0.9061895347        0.3340751317       11.9801250122
  O         2.0762041992        3.6461235999       14.6997293395
 Si         7.4923681084        2.4104345925       12.8417074428
  O         7.6063700155        4.0425389378       12.8865353651
  O        14.5538224393        1.1621143812        9.7530438493
  O         8.0130442706        6.6126087547       11.9012419115
  O        14.2995023395        5.3734953755       12.0499604956
 Si        10.1369022214        5.5249047427        8.2414562126
  O         7.9369341083        1.8198341581       11.3903944987
 Si        13.9811766305        2.1032364771        8.5644073502
  O        12.5745839076        2.7158952396        9.0861447432
  O        10.4066273176        2.2286118975       10.5710014980
 Si         9.0853621855        1.3171479947       10.3607553419
 Si        11.4249042736        3.3383168702       10.0304341645
  O        12.0633359967        4.2151670092       11.2376612248
 Si        12.7901529216        5.6283744109       11.5515574135
  O        10.4822458376        4.2971314225        9.1697142243
  O        12.9735908914        6.4513547160       10.1642102062
  O        11.9851810658        6.5219504856       12.6374192785
  O         8.4280420305        1.2448545490        8.8620072649
  O        10.8104843077        6.8706398175        8.8398679529
  O         8.5856067809        5.9438427967        8.2618510912
  O         8.5155518073        1.8058006414       13.8918176500
  O        12.9730217542        6.9399775862        7.5896029150
 Si        12.3273697543        7.3455269525        8.9865014018
  O        13.8768825705        1.2517665832        7.1925638799
  O         3.8685742081        7.3425644850       12.1480142465
  O         6.5210614996        7.5058983210        8.3449915597
 Si         5.0048106836        7.7435235628        8.6935999075
 Si         0.1916475647       14.7450393887       10.5968471272
  O         5.2874185193       10.3306902160       14.7980426493
  O         4.9631956720        8.4221092779       10.1631637234
 Si         5.1063188581       14.1507598357        8.0311855377
  O         1.7348963703        8.2659937643        8.4229458127
  O         2.3116903763       13.9545909225       13.8804347291
  O         3.5595246447       13.8655349892        8.4963307992
  O         1.3155991673       13.9604167881        9.7454013419
 Si         1.9453754658       13.6443648572        8.3011278624
 Si         1.3212419515        8.3974082252        9.9963604849
  O         2.5449968813        9.1745062772       10.6725345353
 Si         3.9178774866        8.7398483287       11.3567516713
 Si         4.9711883777       10.9743157923       13.3457388561
  O         6.1947860880       13.0557302242        8.5915891745
  O         4.2141941040        9.9143847125       12.3997049697
  O         6.2129824863       11.4029039355       12.4660047070
  O         4.2060609112       12.3249254190       13.7126574235
  O         1.4954526804       12.1391399772        7.8523056951
  O         4.2855344232        8.7602750096        7.6853146267
  O         4.6290477582        7.9328697883       14.5401573106
 Si         3.2112917811       13.0022575781       14.7764181687
  O         7.4253086233       11.2347009814       10.0989446235
 Si        13.3203149575        9.5957869493       10.5625115177
  O        12.8849220943       12.7277239304       12.9709938331
  O        14.8601366002        9.2499711469       10.2396991826
 Si        12.7807737433       12.6185760570       11.3556474939
  O        12.7242878099        8.9228026047       11.9046445142
 Si        11.6103696793        8.1038457502       12.7461035052
  O         8.4345573711       14.0561583247       14.4512624252
  O        10.5108919250       12.6408553557       13.9715164509
 Si         8.9247149091       12.5571931881       13.9885634186
  O         9.6555691308       14.7078544029       10.6493470289
  O         9.0247352258       12.8167173359        9.0116263325
  O         7.8529957505        9.4073769363       11.9709620067
  O        11.6567954500        8.6677192166       14.2630579923
 Si         7.5552378537       12.1457230902        8.7461510352
  O        11.4029037420       13.8825492431        8.6758489436
  O         8.5903487537       11.9892039074       12.4866360830
 Si        10.2927520672       13.4925135371        9.7985106383
  O         8.5935104966        8.1003768016        9.8494980472
  O        13.2290799248       11.1843389762       10.7412592868
  O        13.7816185828       13.7819325206       10.8244626324
  O        10.1463811146        8.2513177334       12.0600209848
 Si         8.1007552836        7.4817856122        8.4466578144
 Si         7.5592002951       10.9897601474       11.7078943719
 Si         8.6442967151        8.0663267000       11.4636912567
  O        11.2236762256       12.7260436501       10.8932322248
  O        12.4732973082        8.9179793247        9.3356678418
 Si        12.0557387014       12.6188707885       14.3578135153
