216
15.0 15.0 15.0
  O         4.0634725274        2.2659284832        2.6538707840
 Si         4.9841836467        3.2511493585        3.5647945772
 Si         1.1577122973        5.7593695386        3.2923382901
  O         4.1496697778        4.3724777638        4.3721800944
  O         2.0369649859        6.7157953201        2.3461865065
 Si         3.4411551132        5.5338797637        5.2517006745
  O         1.9297550856        5.6267525063        4.7013418845
  O         3.4377888890        4.9833720915        6.7852734442
  O         5.8641287043        2.3343206777        4.5460130531
  O         6.0103286101        4.0596932076        2.6620492524
 Si         3.9518348069        1.6179734047        1.1585195239
 Si         6.3951011579        0.9992299927        5.2641851964
  O         5.3071731334        0.6318056780        6.3999595849
  O         0.9398810120        1.6408517064        1.8026029093
  O         6.1771065413        6.1789858133        1.1634840894
 Si         6.9569953116        4.8776361225        1.6906815319
  O         1.0064750067        4.2688551606        2.6569336042
  O         4.0694380175        7.0429019250        5.1488294290
  O         2.9619938115        0.3242445738        1.0957956688
  O         1.7349106080        2.9717218239        6.5804487159
  O         0.9431568418        2.1883989211        4.3539019621
 Si         0.4847119235        2.2910074369        5.8866149639
 Si         0.5143268819        2.7310973369        2.9177376408
  O         5.3996107291        1.1580405650        0.6284418813
  O         0.3107628525        0.7671256617        6.4100156678
  O         3.9776369027        7.4223761497        0.7908335728
  O         3.3809256550        2.8009510619        0.2253569065
 Si         2.8234442983        3.6610267943        7.5094373403
  O         7.1915119287        3.9720405730        0.3878029477
  O         6.8774794955        5.8490839411        7.5079566105
  O        -0.2286529859        6.5641819033        3.5865520906
 Si         1.3841466068        0.1105638509        1.4443933657
 Si         5.0350252896        6.4656352102        0.0524606577
  O        14.3105517428        5.9211530493        6.7117032298
  O         7.8957267808        1.1701456135        5.8574000752
  O         8.3589815642        5.1639558870        2.4254373412
  O        14.2050076680        3.2859274779        6.1041006910
  O        11.9513325904        4.7681372654        6.2595989193
 Si        10.5854630235        5.6350030657        6.0297768955
  O        12.8881307822        4.6223433926        1.5606798364
  O        10.8546394723        6.0974758962        2.2728921973
 Si        12.8552635573        3.0536448477        1.8420260548
  O        13.9182889826        2.7303825135        2.9728475310
  O        11.4741260106        2.6603951130        2.5063850181
  O         9.9209099031        5.2361494627        4.6040997502
  O         9.3714960742        2.4967743401        4.1285146296
 Si        11.8011587468        5.6670280399        1.0513568503
 Si         9.5382030725        5.9414548158        3.1947784302
 Si         9.9881996174        2.1130862327        2.6751634555
 Si         9.0437555591        2.3004399008        5.7192473254
  O         9.2156141697        2.7364699515        1.4097942799
  O        10.4746126546        1.8622963707        6.4196406940
  O         8.2760653229        3.5802600711        6.3974727631
  O        10.0685333466        0.5314025347        2.4947871026
 Si        13.4648552793        4.5536319645        6.8319510070
  O        13.2829104762        2.3386112502        0.4639747604
  O        12.6746846954        6.8018703063        0.3780005199
  O        10.9486852126        7.2026985606        5.8691103480
  O         9.5337912416        5.4656936317        7.2814491023
 Si         8.3815327842        2.9471808109        0.0447233510
  O         8.9708972075        7.4061084917        3.4476547721
 Si        14.2608417763        7.4951085848        7.0473478086
  O         6.5633298713       14.7744621594        4.2289435446
 Si         2.4645559965        7.7547391937        1.1892074427
  O         3.9729853840        9.3775615171        6.4457059569
  O         1.5529796655       11.4979224621        3.2869018289
  O         2.2720299540        9.3064301323        1.6507756295
 Si         4.1979438096        8.6824597188        5.0152212944
 Si         1.8967042679        9.9009644728        3.1306448927
  O         5.6857300347        9.1385600403        4.5251059562
  O         3.1130486681        9.3754903574        4.0558325440
  O         1.2498325162       14.0591075825        2.6560238886
  O         1.0032493624       13.4415980053        5.1607528369
  O         0.5439130114        9.1393718445        3.5072501460
 Si         0.7450301031       12.8950070357        3.6502581482
  O         7.1050460309        7.9610718627        6.2648267490
 Si         7.0440190316        9.3049441107        5.3927262678
  O         7.1086509611       14.1627434279        0.8537535252
  O         7.1903555677       12.6371587892        3.0441201832
 Si         0.2170192728       14.1449891858        6.3944440298
  O         0.4685720977       14.4619108391        0.2622219890
  O         7.0242422396       10.4759841654        6.4993732122
  O        11.3937880534        9.7653630896        6.4738962549
  O        10.7135508541        9.3084662698        3.0497605306
  O         7.3502505901       12.9017313994        5.8570303668
 Si         7.5631119881       13.5078113896        4.3699323171
 Si        11.0525278441       11.3145918933        6.2394213238
  O         8.3640694596        9.5969827675        4.5170017426
 Si        11.3543440629        8.2658190147        7.0193324162
  O         9.1558137379       13.8304506878        4.2150760945
 Si        14.5123187759        8.0852554380        4.1070957558
 Si        12.5766345485       12.3450848472        3.6058963130
 Si         7.9894893750       11.7358373240        6.7931328629
 Si         8.3069976756       10.1212549253        0.5054701126
  O        11.6240492444       13.5265201605        3.0600433490
  O         9.4598574375       11.4835892735        6.1811118232
  O        12.8899582436        9.1413585101        1.2493765118
 Si        10.0897741007       13.9878347514        2.8880917067
 Si         7.7757592185       12.8663365888        1.5368043523
  O        12.5727197046       11.0775302346        2.6485532155
 Si         9.1590301284        8.9711960102        3.2565539939
  O        14.1237898960       12.8021530242        3.6009750851
 Si        12.2686380214        9.5116089496        2.6782614373
  O        14.6828677542        8.2112510124        5.6862685399
  O        11.5600362325       12.2567533444        7.4198623392
  O        13.0367818313        8.5910548942        3.7499912840
  O        13.6052006291       13.8261021928        6.4000610173
  O         9.3732769850       13.1264806495        1.7192771649
  O         7.5754555901       11.5590409213        0.6205100577
  O        11.8780152085       11.8056090743        4.9542167717
  O         8.4267680573        9.5303127689        1.9688416021
 Si         6.8400215390        2.7693183403        9.5887890320
 Si         3.5599500902        3.8036006412       13.9838040980
  O         4.2192203201        2.9794532963       12.7469706405
  O         2.0898613634        4.3074009716       13.5812715007
  O         2.6477698001        2.5738157208       10.6948459458
 Si         4.1355390540        2.2839398664       11.2895132704
  O         5.4467216667        2.8891806568       10.4667876128
 Si         1.3744143792        3.3858144326       10.0994885575
  O         2.0340883727        4.1450123840        8.8331559957
  O         6.4037642000        1.9488084873        8.2811628714
 Si         0.7040252165        4.6422223020       12.8367093153
  O         0.8563603335        4.3770066988       11.2517375216
  O         4.1451777838        0.6497654903       11.3190454073
  O         0.3865372477        6.2240110288       12.9717369436
  O         4.4424911870        5.0822384686       14.4515145848
 Si         5.0036243275        1.2914277989        7.8326753608
  O         5.6235129796        7.3319680886       13.8333803630
  O         4.6151390288        0.0919201768        8.8386009163
  O         3.9140152925        2.4964099235        7.8134108607
 Si         6.6706188459        7.4658857917        7.7393375335
 Si         6.6384216233        0.4045259836       14.9320899383
  O        15.0141573171        2.5755073616        9.6064429369
  O         7.8128105360        1.4870966258       14.6786038872
  O         7.7233873276        4.0125596514        8.9839260995
  O        14.5396229953        3.6707302346       13.4453561369
  O        14.3791129231        0.9850669998       13.5151872355
  O         7.9020932635        1.9419613803       10.4748167722
 Si        13.6609102427        2.3770756006       13.8970449472
  O        12.2593482993        2.3663956581       13.1157555971
  O        10.0044533514        1.7932587570        8.8332794573
 Si        13.4473444137        2.9681084867        9.2911681271
  O        12.6730512462        3.1960043177       10.6735605148
 Si         9.4370127844        1.4803121610       10.3041315875
 Si        11.5890639931        3.0714866136       11.8439808950
 Si        10.1254508462        4.9631515849       13.5015570521
  O        11.0852520143        4.5389380845       12.2754375382
  O        10.3242823987        2.2018295744       11.4110548486
  O         9.6136592351        6.4621536284       13.1167931871
  O        12.5848108350        1.9530261323        8.3536016409
  O         9.1392048479        3.6883493017       13.8075959901
  O        13.4382297032        4.3178393139        8.4298615425
 Si        11.1739471574        1.3290885005        7.8174136007
  O        10.8616439493        5.0666867674       14.9160810174
 Si         8.0853337129        4.7283907335        7.5446839555
  O         7.5031747111        8.9986533521       14.6942865394
  O         6.2421500195       14.8483578136       13.4700977350
 Si         0.7009396878        7.6777587731       13.6104870771
  O         5.2353129968        8.1308585655        8.2657657796
  O         2.5659581841        8.8287556857        8.5982826320
 Si         4.0232776970        9.2605115695        8.0407633142
  O         6.0834463217       14.0560764999       10.9300115899
 Si         4.6098946746       14.4436974808       10.3210074986
 Si         3.8168506633       11.4526486930       10.1444197278
  O         2.6621432998       10.7022190760       11.0089969158
  O         4.0701703778       10.7766599189        8.6754421755
  O         3.6947584031       13.0886789650       10.1755475594
  O         5.1634779701       11.0998453428       10.8571829408
 Si         1.3768847132        9.9276360053       11.6371363820
 Si         6.3068746422       11.0150011320       11.9164439664
 Si         6.7509422103       13.7821663733       12.3922805517
  O         6.3234691241       12.3036409399       12.8780500948
 Si         1.0250383671        9.3193627198        8.8187579642
  O         5.9406831935        9.7529626857       12.8146303940
 Si         6.6592861333        8.4740951406       13.4367292017
  O         1.5569753443        8.6840367726       12.6605391635
  O         0.6209250729        9.2883752802       10.3753609863
  O         0.6187248820       10.8624882311        8.3545032720
  O         0.4776559409       11.0593990483       12.3537216637
  O         0.5625314581       12.6552341705       10.2962126549
  O         0.3897995968       13.6761045446       12.7400455149
 Si         0.1523678322       12.3983109654        8.7582421689
  O         0.8491690174       13.4435973695        7.7275076028
  O         0.2355972110        8.1185491327        8.1311493067
  O         7.6410121947       10.9452999360       11.0172186270
  O         1.5623385455        7.4211308084       14.9230577936
  O        12.8023081053        7.8864250941        7.5742424674
 Si         8.6462185985       11.3167998817        9.8093617402
 Si        14.9442068148       12.4667987575       11.7678884312
 Si        12.9603705098        8.2918808463       14.9069483194
  O         8.0429133882       11.9489515017        8.4152607428
 Si         9.2312760411        7.7377277746       12.1782125662
  O         9.7654135335       10.3209582935       14.8510238741
 Si         9.2274505210        8.3488444111        9.2940160649
  O         8.3619341664       13.7489628463       12.3430040288
  O         9.6170691789       14.9104440808       10.4636843078
  O        10.3193858303        8.0291548099        8.1959880072
  O        11.5762000480       14.7521938662        7.8147367388
  O        13.5784817478       12.8299382556        8.7395706418
 Si        10.7503865334        9.9751249680       13.6269959615
 Si        12.2400824984       12.7494032144       12.8756629075
  O         9.8522553343        9.2131079185       12.5100101726
 Si         9.6852466641       13.6464155402       11.4285314142
  O         9.6893543637       12.3492090997       10.4714186950
  O        13.1279273490       13.5978247505       13.9871685671
 Si        14.5653027247       14.4291231348       13.9160275509
  O        11.7956554557        8.8247604355       13.9728383065
  O         7.6438734027        7.8784450184       12.3296440893
  O        11.5582452953       11.3329538888       13.2852747144
  O        14.3152792689        8.3677979805       14.0618775934
  O        11.0190685598       13.6680210218       12.3395826844
 Si        12.5769742317       13.4734321127        7.6187294316
  O         9.5473014320        7.4973689313       10.6230570319
  O         9.3737599036        9.9403067635        9.4552462982
  O         7.7373932928        7.9680309688        8.8313441358
  O        13.3282893146       12.4265861173       11.7199209154
