216
15.148 15.148 15.148
  O         6.4002486139        4.6541397200        6.1392046777
  O         1.8922219236        4.8847676684        2.1900312435
 Si         2.1811697444        4.8729015671        6.0046532160
  O         1.6520287313        4.3420127908        4.5942345291
 Si         1.0643125611        3.9202264484        3.1832926687
  O         1.2659233945        6.1596341781        6.3874222838
  O         3.7680126263        5.2756877068        6.0774496773
  O         1.5692852714        0.9529904551        5.0577037428
  O         1.2532846408        2.3255302202        2.9068227662
  O         6.0656543851        5.8351879896        1.7301628615
 Si         6.3917422802        4.2997165683        2.0630398286
 Si         1.0690277579        0.8508382601        3.5293327136
 Si         2.0351187695        4.5302066432        0.6498426880
  O         5.2060369592        3.3217901619        1.5787036901
  O         2.0537722638        3.5555978171        6.9496087977
  O         6.7018223682        4.1834058898        3.6316979957
  O         3.2329373102        1.0231250234        6.9499223708
 Si         5.0152123851        4.6619353515        6.9540391324
  O         2.8443535954        3.1501238340        0.5453074479
 Si         6.7065587794        7.2526204097        1.3260179954
 Si         7.4375015754        4.8225316746        4.9143428240
  O         4.5771448040        3.1694916573        7.4166672468
 Si         4.3998989590        3.0093327262        0.2123301536
 Si         4.6705150121        0.0207458192        0.2782367418
 Si        -0.0149600931        7.1552527166        6.2069021613
  O         7.5589344604        7.0904472918       -0.0398111237
 Si         3.1131523514        2.5062662679        7.6093304095
  O         7.8058513164        6.3916537342        4.7272476689
  O         7.6638277599        3.8495140209        1.2389209353
  O        10.4144946797        4.7818479423        7.0856851799
 Si         8.7090644744        2.9340529081        0.4786937423
  O        14.6812222963        4.2637318258        2.8413415084
  O         9.9461557711        2.8389122340        1.5017663692
 Si        11.2958756922        2.0404657764        1.8498196032
  O         8.8341472964        4.0197610053        5.1422337355
 Si         9.9281461521        3.5097417023        6.2166745978
  O        11.2069692405        2.6959360256        5.6056743240
  O        13.3350345206        0.9501364755        5.8415928970
  O        13.5602915540        3.3867719622        4.8892396775
 Si        12.7879877892        2.4677575964        5.9568718706
 Si        13.2180301330        4.0456308197        3.4525516499
  O        12.5490582040        5.5116768032        3.6261335296
  O        12.3118167048        3.0768504837        2.5499125727
 Si        13.2579537042        6.9763183011        3.6519683952
  O        11.0384137779        0.7869677742        2.8397454746
  O        14.4510462919        6.9351448501        4.7514909524
  O         9.2372576785        2.4389856909        7.1813174729
  O        11.0542268323        7.1122343407        6.0787543481
  O        13.0928168687        2.9969157600        7.4280641245
  O        14.6680656569        0.3923204080        3.6192325648
  O        11.8323302156        1.5705795422        0.3921565087
  O         8.1907629464        1.4010736564        0.2308253189
 Si        10.6223891897        6.3419972397        7.4109908280
  O        14.1230831080        6.7874586665        7.4136103736
  O        13.7262270891        7.3370990581        2.1624403577
 Si         2.7665017664       15.2509435309        5.7191666743
  O         4.4183548770       15.1508294628        1.8799449318
 Si         1.4369299228        9.1404969602        0.0953923383
  O         3.8840975476       14.9966569971        4.5596378518
  O         1.9847461672       14.8391819166        2.8311892961
 Si         1.2708184994        9.9713675465        6.7544032580
  O         5.4578420675        8.2725735058        1.2619334630
 Si         4.3344320574        9.3097821350        0.7713718683
  O         1.0234201503       11.3687024229        5.9101519141
  O         2.1839792971       13.7834460180        6.0866900090
  O         5.1459329105        9.2235231852        6.1472216544
 Si         6.1228215299       10.0602113553        5.1957211405
  O         4.2630906324       10.5863135828        1.7351618726
  O         5.3778076869       10.8852346519        4.0279605786
 Si         4.9756270791       11.6679926444        2.6768567859
  O         3.9313668146       12.8641005935        3.0005504758
 Si         3.5652475742       14.4387555318        3.0546311055
  O         6.2455772967       12.3021075017        1.8951659921
 Si         0.7960533218       12.9611680645        6.3000996392
  O         6.8567704950       11.1194846311        6.1398018395
  O         2.8322507958        8.6907959618        0.7837475755
 Si         6.8636075244       12.3302311594        7.1890872961
  O         7.1785460561        8.9950936133        4.6483872872
  O         2.7599116966        9.3751210627        6.7059045465
  O         0.3200423182        8.7475129133        6.3118169470
 Si         4.1915695379        9.2457167427        7.4307537767
  O         7.7478836344        7.7307134100        2.4595175726
  O        12.6041447081        9.1556233370        0.4787344738
  O         7.8047996135       13.4027585178        6.3935706729
  O        15.2489594936        9.0680468059        1.0063085928
  O         9.7929439723       14.6814931006        4.8895148252
  O        10.6482505436       13.3091484936        2.8249709666
  O         8.7336529388       11.6056006417        2.2759467555
 Si         9.3443039919       13.9404542966        6.2739847758
  O        12.4336508440       14.2769471492        4.3394266802
 Si        13.8204103879       14.8977583970        4.8553208258
 Si         7.7432888511       12.4013018726        1.2975595793
 Si        10.2204237310       11.7593823586        2.8587428854
  O         9.3239002793       14.9868939961        7.4936070092
  O        11.2762140497       10.9663802590        1.8904311883
 Si        13.8858089185        8.1832930557        0.8139415023
 Si        10.3273931294       11.1137162385        5.9903047486
  O        14.7435523195       13.7314585632        5.5262203017
  O        10.4252678214       12.7078902252        6.3988423195
  O         9.5408671202       10.6377928124        7.3315736870
 Si        11.5808860150       10.4368335615        0.3671287835
  O        12.2161699562        8.1330095130        4.0339071988
  O         8.2047207704       13.9622396303        1.1861104475
  O         9.6194537048        8.2878372936        4.2648390605
 Si         8.0892910134        7.8306690028        4.0324580719
 Si        11.0177470979        8.3658159500        5.0720021446
 Si        10.9605566365       14.5890161972        3.7365846823
  O        11.2826223769        9.7841629987        5.8377160538
  O        10.0172892045       11.2774207724        4.3946194663
 Si         7.7641471696       14.9974777242        0.0149227024
 Si         3.7218417171        5.2797447370       13.7077742970
  O         2.6725638420        4.7249482128       12.6193245303
  O         4.5057805986        6.5555586247       13.1740089241
 Si         1.2958345150        2.7938603569        9.9629666589
  O         1.3408549888        4.3455948835       10.4823713195
 Si         1.1790017349        4.8608580591       12.0062722320
  O         1.1765506321        1.8113450270       11.2177379062
 Si         0.9211449664        0.8815877449       12.4999651907
  O         2.6189155513        2.3714546435        9.1406691071
  O         4.7342899526        4.1017890583       14.1967651624
  O         0.6161251625        1.7403605953       13.8562796605
 Si         5.4680384636        6.8889852132        9.0778819224
  O         5.1219739558        6.6351148234       10.6410040981
  O         5.2768400043        5.5163143336        8.2851619077
  O         2.8332484240        5.6827561136       15.0044345418
  O         0.0751766062        3.8714848787       12.6243246867
 Si         5.4276666245        7.2894258375       12.0747536866
  O         6.9643688958        7.1760178028       12.5507440310
  O         0.5608415553        6.3009226570       12.3873648188
  O         4.5847719649        1.5165663373       14.8399706257
  O         7.0059814950        7.3350862697        9.0721698592
 Si        -0.0567484067        3.2006072087       14.0717123334
  O         0.6247627325        4.1837444365       15.1389349526
  O        15.1600868275        2.6138033978        8.9998925127
 Si        15.0677814053        7.3736476739       13.4097544208
  O        13.5674933349        3.1578330448       14.5241009321
 Si         9.5887694699        1.2499081655        8.1951625221
  O         8.0582503794        0.7439377772       11.7588863993
 Si         9.0534726731        1.7725033129       11.0442556335
  O         9.0006547609        3.2250859909       11.7479022756
  O         8.6875846554        1.6547885527        9.4754849959
 Si        13.6843994603        3.2410316403        8.8959060788
 Si        13.3609098659        6.3333788049        8.7553744862
 Si        11.8260133100        1.2260459220       10.1489134041
  O        12.7715966876        2.5303734028       10.0245212535
 Si         9.8869717833        3.9258872628       12.9249608032
  O        10.6052528090        1.3467706328       11.1965512467
  O        11.1337684819        1.1030071017        8.6862089738
  O        11.2127953845        3.1546979645       13.4033637640
  O        10.3361004252        5.3675712785       12.3120750112
 Si        10.2073472984        6.9398005370       11.8725764695
  O        13.7287877797        4.8220710104        9.1539669307
  O        12.7841659973        1.1775330268       13.0873210531
 Si        12.3031084361        2.2524736443       14.1496159760
  O         8.9902956298        3.7875136161       14.2744674142
  O         9.2967826151        7.0377731163        7.9789816918
  O        11.7706611631        6.4671894940        8.5236360407
  O         9.2395212723        7.0954116888       10.5831655226
  O        13.7210912954        7.2681266481       10.0156036126
  O        14.1992909430        7.1017429155       14.7702596076
  O         9.4633452218        7.5752218767       13.1733142621
  O        12.7026937168       -0.0014157780       10.7372253812
  O        14.8487539556       -0.1469947549       12.2323482934
  O         2.2799982514       15.2261880046       12.7095886415
  O         4.4922298307        7.9633084841        8.3615053173
  O         1.5931281637       10.6426698737       14.6671248080
  O         1.1892678144        8.1995012656       13.9521317766
  O         3.6217657072       14.1887766240       14.6896537258
  O         1.0941542371       10.4169592049        8.2964121686
  O         4.8020156181        9.7751586338       14.4535106858
  O         1.8951566311       12.6985422219       13.1798186351
  O         5.1133862823        8.8581476864       11.9988936012
 Si         4.3767263758       12.0476266795        8.7988843404
  O         4.1865954273       13.5634147039       12.2299048004
 Si         2.9833001132       13.8953287968       13.2235294589
  O         5.1266370069       12.3167205663       10.1810630434
 Si         1.8364362186       11.0815785401       13.1309391463
  O         5.6862768221       11.3723214981       12.5453543234
 Si         5.4399136415       12.7264003988       11.6978797500
 Si         4.7327685591       10.1294541643       12.8986272330
  O         6.7374851086       13.6476840829       11.8370150893
 Si         1.1875795683       11.9137446091        8.9123114117
  O         2.7704130932       12.3841994787        8.9911406474
  O         3.2370549966       10.5702928519       12.5422511923
  O         0.7747656948       10.3452670198       12.1554506303
  O         4.4246391992       10.4883118572        8.4229671893
  O         0.4757750318       12.9426772814        7.8851371184
  O         5.3500196568       12.7768269327        7.6556581374
  O         0.2298825352       11.8364657305       10.2026813308
  O         6.1737288797       14.7520965492       15.0646334113
  O         7.8898961322       11.6911821559       14.9989184190
 Si         7.9440732283        7.7693674252       13.6960547426
 Si        12.4985104178       12.2059739808       13.0640681297
 Si         8.1147887257       14.3575447537       12.2317170673
  O         9.7060040894       11.4443128426       10.0179845509
 Si        13.1467066973        8.2341201708       11.1712156530
  O        12.2994945253       11.5261849134       14.5236090905
 Si        14.6540590544       10.8773967597       11.3041006476
  O         8.4308831848       14.4340854493       13.8086213331
  O        13.5742993231        9.7745321259       10.7311325373
  O        11.2995356838       11.8324453610       12.0623443189
  O         7.7405506192        9.3432443001       13.9547389330
 Si         8.5514907877        7.6912551637        9.2519001351
  O        11.6043116523        7.7390404936       11.5186123248
 Si         8.8641653025       10.7968547652        8.7933326850
  O         7.5817231475       11.7557879124        8.5327480947
 Si        13.2402281321       15.0280903515       12.2769270791
 Si         8.7087738757       10.6198661780       14.1127030392
  O         8.9128323872       11.2040921163       12.6205866069
  O        13.9654018340        8.1304054846       12.5378846766
  O        13.8724227819       11.7549699692       12.3869417819
 Si         9.7990822036       12.0027764092       11.5311736245
  O        12.6166550089       13.8064017765       13.1075051724
  O        10.1122262932       10.1792897079       14.8302820085
  O         8.5939805370        9.2985303323        9.3011002028
  O         9.3188644940       13.5518877932       11.5194281553
