216
15.139 15.139 15.139
  O         2.6791070881        3.7274553953        3.4018606580
  O         3.9401715649        2.5094480582        1.3971385154
 Si         1.3111849983        4.3609356719        4.0008819773
 Si         2.8301327801        2.3706764439        2.5280997400
  O         1.4133460148        1.9697081688        1.8818822121
 Si         6.7452121943        1.5139262859        5.8950878849
  O         3.3081707572        1.1799853289        3.4718054395
  O         6.3914625631        5.0458079902        6.2374462635
  O         5.2926355152        1.4291138636        5.2099841612
  O         1.3394831176        5.7660273502        4.8076699189
  O         0.9487502867        1.0254487170        6.5397785931
  O         0.7112284174        3.2220847353        4.9799033581
  O         0.9558439576        6.8618329204        1.0244104723
  O         4.5681963012        6.9520226484        6.8636136795
 Si         4.2159717738        0.4302310908        4.5444519153
  O         0.4665931665        4.7470860359        2.6763525057
 Si         0.3894699802        7.0794385007        4.6028995770
 Si         0.1809044507        2.4490283262        6.3015704592
 Si         4.9845415683        2.3019013306        0.2066986591
  O         6.6366066997        1.4954366659        7.5121405019
  O         5.9990110455        3.5271798653        0.4046732507
 Si         5.6976903765        5.9232422061        7.4061518622
  O         5.8289443122        0.9518020234        0.1589137860
  O         7.5647087954        2.8482825350        5.5168103495
  O         7.1712861390        7.2388895198        4.0984019230
  O         7.5633807376        0.2470628318        5.3755969482
  O         3.2205316357       -0.0848840397        5.6802242496
 Si        -0.0572510861        1.9096444763        1.2399194613
  O         7.4805720224        5.6827705246        0.3939688080
 Si        15.0299065518        6.0969259580        1.9758810184
  O        14.7355317850        7.0857093055        3.1966828135
 Si         7.8317510721        4.3970211618        5.8665654736
  O         8.4325391751        5.0248701733        4.5128084377
  O        14.5908256794        3.3689983478        0.8616948171
  O         8.9169491896        4.6474954559        7.0941601204
  O         9.9386284761        2.1346697000        0.6275364591
 Si         8.6162988662        6.5334102083        4.0008630611
  O         9.0678272315        6.5477700810        2.4524249242
  O        11.2711638788        2.0369916966        5.1177702879
  O         9.6924129259        1.0946916748        2.9965266078
 Si         9.5628118098        0.7445167568        1.3914721007
  O        14.1024735683        1.1741576356        2.2698369809
 Si         8.9564535970        6.1289811201        0.8970291253
  O        13.7131125555        5.7408608690        1.1089995173
  O        13.7133407094        2.3626370495        6.0718392172
 Si        12.1442224406        2.4120078088        6.4215342711
  O        11.3521295748        3.7908474763        6.7729600715
 Si        10.7482078774        0.8219583000        4.2124839298
  O         9.6237346134        7.2600459205        5.0408637014
  O         9.8653712293        4.8115805246        0.7040220324
  O        12.0567823719        0.2378855582        3.5502248684
  O        14.3505537847        7.0816670396        5.6915779774
 Si        13.5938446191        4.4027394540        0.1877593300
  O         8.1240784099        0.0826591332        0.9468467796
  O        12.1446101837        3.7108965304        0.2299896697
 Si        10.5573208758        3.5190230984        0.0290417669
 Si         1.8564895661       14.7979598082        6.4862993183
 Si         6.6723254678       14.7461144213        0.3249091000
  O         6.4625832161       10.8052429172        0.7270161957
  O         5.2966451580        8.7567164872        5.1244484369
 Si         4.5300685721        8.5563390260        6.5253543961
  O         3.0795276412        9.2178125898        6.2928173771
  O         2.5216907669       10.6475668627        4.0222335264
 Si         6.6753713100        8.7407419885        4.3217913093
  O         6.5467285963        9.4664477358        2.9041645865
  O         3.5589918847       12.6299788643        2.4435916148
  O         5.7668641941       13.8624595621        1.3439551031
 Si         5.0422357893       13.2418644345        2.6544773210
  O         5.9271602402       11.9740985372        3.0807195342
  O         4.9730229329       14.3481891447        3.8188454584
  O         1.7323400828       11.1137332713        1.4882559897
  O         1.1250847157       12.7711198248        3.3787089535
 Si         2.2603895133       11.7646531661        2.8534208127
 Si         1.9663850315        9.6885291824        5.2213342813
  O         1.3414576046        8.3597337169        4.5751387980
  O         0.9473432714       13.6453031191        5.8336126371
  O         0.7957305760       10.4091289558        6.0691139125
 Si         6.8328905367       10.9168886843        2.2769239699
 Si         0.1142874353       13.2109531676        4.5377241613
 Si         1.3453774783       10.8230372597       -0.0428903241
  O         0.5490244970        9.3993832262        0.0004651483
  O        14.2617755406       11.9905245237        4.8922330816
  O        11.7989583183        7.5657314424        6.3870805396
  O        13.0100563054       13.8100497179        1.8926214741
 Si        13.4445670611       15.0002467137        2.8992356092
  O        13.8599515235       11.3348883207        7.4094225877
  O         7.8205145027        9.4827467809        5.1432088727
  O        11.6585627160       12.3887626817        0.3055368418
  O        10.0926596126        9.5113016142        6.4565334563
  O         8.7436346658       13.7022083773        7.0304071975
  O        10.6582749147       14.7463291861        1.0326711282
  O         9.7718644602       11.1995024885        4.6567978025
 Si        14.3662548930       10.8141880527        5.9862599391
  O        10.1682723770       14.9102100644        5.2779961729
 Si        11.4706772184       13.4289581038        1.5209598481
 Si         9.3212906334       12.1968173109        3.4813829099
  O        14.4418700636       14.4876421004        4.0295848382
  O        10.6343764484       12.7717571747        2.7449172067
  O         8.4432903407       13.3148576042        4.2598058450
 Si         8.9475112526       10.4059554496        5.7907597363
 Si         8.7114842353       14.2922544802        5.5253694601
 Si        10.2214762330        7.9066594255        6.4006555439
  O         8.3631382065       11.4261101563        2.4358627570
  O         8.1207260092       11.2739264927        6.8615430218
  O        13.4770126872        9.5373528017        5.5271315715
 Si        13.3050907446        8.1275731692        6.3216379975
 Si         5.7526748898        3.9265622546        9.6526690680
 Si         4.7374983903        5.1622240758       12.3550440303
  O         5.6142806121        4.5651808390       11.1255596310
  O         5.5997149346        5.2669699114       13.7019152680
 Si         1.0830034969        3.4354874368        9.1034056305
 Si         3.0810590095        2.6765605833       12.8725641217
  O         3.3826923814        4.2561037971       12.5433467757
  O         1.6541844492        2.1304187869       13.4150671022
 Si         1.1047275070        6.3305419606       10.3578180372
  O         4.4167510583        6.6915900753       12.0627398862
  O         4.1890853494        2.2910721027       13.9534298264
  O         4.9782771293        2.5308170077        9.6265152457
  O         3.2381414237        1.8876228364       11.4957251722
 Si         3.5744203836        1.8548066490        9.9320315283
  O         2.5069841900        2.6832674527        9.0619535923
  O         1.2523680061        5.0024874299        9.4482910098
  O         5.1279415703        4.9658625375        8.5782191302
 Si         6.7306744645        4.5953678085       14.6130644238
  O         7.2514239129        3.4673411397        9.2212673609
 Si         0.4486650318        1.0403845062       13.5301982261
  O         2.5268744932        7.0952416606       10.4138632660
  O         6.8748755222        6.7923154735        8.0316700977
  O         3.6968417092        0.3247775651        9.5474723739
  O         0.4864875782        5.7603440137       11.7487281501
  O         0.2369297808        2.6631468801       10.2413865353
  O         0.0728239253        7.2554921141       13.7866496917
  O         0.3974577687        3.3136812734        7.6493726840
  O         0.1537643987        7.4924219364        9.7748002526
  O        14.9822960965        1.1054886543       15.0025196014
  O         7.7368296288        3.7878150512       13.6506854322
 Si         7.7192700257        2.0286891191        8.5862827491
  O        14.5055125515        1.4215931451       12.3860551415
 Si        14.5699272274        6.0575448714       12.9349521286
  O         7.9639303862        0.9542670414        9.7660472475
 Si        14.4332635841        1.4612912522       10.7705434716
  O        14.1942275410        4.7962507359       13.8736396839
 Si        11.6205712226        2.0257841185        9.3454101243
  O        10.3211855100        3.5447652787       13.5693584440
  O        10.5566746570        1.0924068600       10.1022993006
 Si         8.9925234334        3.6482338370       12.6609750289
  O         8.8343490587        2.3652415305       11.7450770923
 Si         9.1438227352        1.0711775963       10.8699943276
  O         9.0601437169        4.8968065277       11.6788239851
 Si         9.2589818190        6.4496654076       11.4062972354
  O        13.1673489939        6.4730616437       12.2924850150
  O        10.8675510181        3.4961639370        9.1744909736
  O        12.9602641394        1.8832878907       10.2423984742
  O        10.8167595615        6.7109690380       11.2099701047
  O         8.5041909876        6.7858308479       10.0504496410
  O         9.1351762466        2.2808317441        7.8113484752
  O        11.9815901941        1.5649547296        7.8158897715
 Si        12.1931461191        7.4512914475       11.5000414855
  O         8.6759651390        7.3341477910       12.6176396778
 Si        10.0463806364        3.6458562224        7.7342701755
 Si         8.0948966720        7.5517589176        8.7183330133
  O         9.3771194065        7.4928728923        7.7280211816
  O         9.3810221035        7.4166616568       15.1313171617
 Si         3.7773580957        7.8179794014       11.1297082099
  O         2.6646997638       10.5709677718       14.1885523859
 Si         6.3038542086       10.1127233449       14.4241751916
 Si         3.4018920584        9.2039065731       13.7422250411
  O         4.4839562451       13.0723752076        9.3837806414
 Si         5.8871832395       12.4475039563        9.9319703025
  O         6.2346487101       13.0102739559       11.4345338786
 Si         3.1490619288       13.9927619489        9.2592800892
  O         4.8893455795        8.3592204391       10.0909810614
  O         3.3192196668        9.0008299265       12.1368236195
  O         5.7471992645       10.8312850289        9.9342518094
  O         1.9707544843       13.4950811077       10.2544210559
 Si         5.8185586506        9.3841124864        9.2331681442
  O         6.3945239106       11.3524147317       13.3963965457
  O         6.7848175438       13.9406787451       14.0343494880
 Si         6.9753478888       12.7699123114       12.8853266724
  O         4.9144303727        9.3126312055       14.2643387062
  O         0.5502832460       12.0614820396       14.4249226006
  O         0.7872599313       14.5851482271       13.4703633520
  O         7.1161093409       12.7695747280        8.9031660851
  O         7.4064235276        8.9765007377        9.1421525765
 Si         0.3595064984       13.5604015705       10.4558541366
  O         2.5958725423        7.9674965659       14.4323131153
  O         0.0726178573       12.7874920051       11.8496153104
  O         5.2122054771        9.3817156937        7.7312556870
 Si         1.0435984504        7.8688214670       14.9050807721
  O         2.3620545257       14.1230771499        7.8581384435
  O         7.4364733850        8.9964734018       14.2048672919
 Si        -0.0416926134       13.1770839390       13.4112416553
 Si        10.7275380220       11.7392354407       10.0176079620
  O        12.2256223610       11.6649492170        9.4466434060
  O        10.5636393799       13.0848335755       10.8800812777
  O        13.5079807150       13.3155333831       13.7304588816
  O         9.8520438573        9.5427284651       13.4891439440
 Si        14.0803641951        8.4545397006        9.3631067184
  O        12.7726882478        7.8884013447       10.0845515604
 Si        11.0362523710       10.0404399062       12.5081290325
  O        14.9801175563       15.1193328583       10.3289006711
 Si         9.8076150380       13.5889654561       12.2016346324
  O         8.5824230144       12.6162644729       12.6249736054
  O        10.4837801522       10.4861789311       11.0380126392
 Si        13.7628258145       11.4219362335        9.0091301635
  O        14.6712026408       12.6924143708        9.3856652063
  O        10.9461792384       13.7126098180       13.3287765770
  O         9.6268277757       11.8373344563        8.8398144894
 Si        12.0401735173       12.6648954063       13.8996753855
  O        11.8966167798       11.2716570556       13.0961278737
  O         9.1295843209       14.9979796408       11.9040677279
  O        14.2811857707       10.0313090563        9.6944108988
  O        11.9990543880        8.7690381687       12.3852819473
 Si         8.3919570860       12.4195742449        7.9660731123
 Si         8.8544106687        8.3266825032       13.8798797499
  O        13.8114744601        8.3663708304        7.8067078675
