216
14.827 14.827 14.827
 Si         4.6161258650        5.6459044798        1.6094270314
 Si         5.9961153970        5.2687746316        5.7943357045
 Si         3.3916874144        4.5780517847        4.1342644229
  O         3.9558136272        4.5979647969        2.6268147408
  O         3.0488404788        3.0375693291        4.4541516015
 Si         3.6301306992        1.6530026640        5.0386926814
  O         2.0247780742        5.4341257740        4.2820574943
  O         2.3857557701        0.6646936685        5.3507564605
 Si         0.5946389597        5.2650877559        3.5248640852
  O         4.5353264938        5.1890224964        5.1039217143
  O         4.7794624106        1.0708650723        4.0465779811
 Si         0.4397372536        2.6463232006        1.8013651182
  O         6.1904368039        5.3559512197        1.5756351917
  O         4.3646533782        1.9765014635        6.4239667845
  O         4.1365512675        1.3006636435        1.5882619759
  O         6.3537154443        3.7753207016        6.3280339189
  O         0.9039303057        4.0470969613        2.4715153460
  O         1.5636936088        1.9749236080        0.8279396419
 Si         5.0601569073        0.4269393577        2.5903052148
  O         4.0313106684        7.0609145538        2.0572306868
  O         5.9190021495        6.5056438224        6.8410646870
 Si         3.0880413756        1.6161682763        0.4065607459
  O         6.6456875570        0.4154761186        2.1517906258
 Si         5.6139379705        2.6240335060        7.1824220771
  O         4.1170433544        5.5174698966        0.0989571166
  O         0.1678745828        1.4018690689        2.7918353206
  O         0.1676387889        6.7357537750        2.9683967988
  O         7.2466049187        5.5976908227        4.8472418029
  O        14.7428444790        5.7637608183        6.6718202488
 Si         7.7627111544        5.0530746421        1.4249748181
  O        14.1815903853        4.7677705669        4.4359507372
  O        11.2014661381        2.8093510146        6.6677845452
  O         8.3198419626        4.3662061006        2.8004348280
 Si         8.6565812180        5.1598056861        4.1904092742
 Si        13.6904430836        4.7631388262        5.9675578504
  O         9.6414178050        4.3642385782        5.1796404015
  O        12.1026168066        5.1774642546        6.0218779122
  O        13.7588427608        3.2971147711        6.6666524231
 Si        12.1326301571        0.7205768665        3.8535418963
  O         8.4807307857        6.5030680777        1.3196972546
  O         9.3883457249        6.5373123507        3.7735257169
  O        11.3732279656        1.5583000871        2.7259078524
 Si        10.7326595590        4.3374471027        6.3765333487
  O         9.0641422956        1.3839319004        1.3256638480
 Si        10.6611232686        1.7684179609        1.3045263914
  O        12.8468744438        1.6518106861        4.9427054847
 Si        12.6607006395        2.1215714645        6.4714837668
  O        11.1848277473        3.2842409563        0.9101832364
  O        13.8476126860        3.0372245733        1.1506829082
  O        11.3651585861        0.7558824758        0.2466936323
 Si        12.6504561610        3.5780116956        0.2330482572
  O         8.0744556174        4.1159220038        0.1457683198
  O         0.9025996222       11.2581090224        0.5039844190
  O         1.1695181846       13.9917164879        3.6264687034
 Si         1.6040056462       14.0855716228        5.1793325333
  O         2.5967248989       13.1063079863        0.9879398873
  O         4.7736120037       11.7004988885        1.1558221998
 Si         3.7262393693        8.6000782534        1.7794946489
  O         2.6383565308       13.0028011788        5.7613943705
  O         3.4522951836        9.1395642318        3.2740056287
 Si         3.6828465472       12.5336435924        2.0165510173
  O         3.6185024290       10.6211902812        5.4388275295
 Si         2.7991608830       10.3418305364        4.0905425611
 Si         3.4212432219       11.8024294940        6.5110729318
  O         2.8954109528       11.6269490877        3.1067461327
  O         5.1000685216        9.1410248294        1.1566423948
  O         1.3078613913        9.9616393567        4.5492572395
 Si         5.8600808739       10.5289976113        1.3375424149
  O         6.5008530383       10.7087657426        2.8057914223
  O         4.4598872867       13.7561447943        2.7111324332
  O         2.5575920539        9.0645943671        0.7453434633
 Si         1.0463597764        9.6491498943        0.5781602575
 Si         1.0881302759       12.8648618913        0.4924895476
  O         4.9321437488       12.1827895816        6.9244288513
  O         0.0778900631       13.7533819094        1.4005203986
  O         0.1453364259       13.8457569365        5.8565003012
  O         7.0929089175       10.4666346782        0.3358135928
  O         0.3214728595        9.1457198347        1.9053069528
 Si         9.0721094651        7.4589131935        2.4859679968
  O        13.2560627520       14.5010931898        3.2938593043
 Si        14.7830754759       14.6193171229        2.7574556197
 Si         8.0594201536       14.8977422129        1.3808006818
 Si        14.2165599626        8.1475006985        2.7408817711
 Si         8.9046412847       11.3655623784        5.9093907234
  O        10.9586699232       14.7463783748        4.6111859987
 Si        14.6870293071        9.7899143728        5.2400058623
  O         8.2474486153       10.5329305447        4.7173792048
 Si        11.6300869470        8.2210297785        0.9714157375
  O         8.0671911465        8.6455150397        2.8837410358
 Si         7.9881472289       10.2195265594        3.1840738661
  O        11.6942846813        9.7243717474        0.4138545659
  O        10.9598585464       12.5228486342        3.2261854579
  O         9.5642278584       12.7656121038        5.4365398727
  O         9.0557389509       11.0334747497        2.3035437867
  O         7.6696929559       11.6081891833        6.9155559187
  O        12.9362764607        7.8288411478        1.8197925678
  O        12.3509107603       12.7735529856        5.4418330265
  O         8.8948556197       13.6810617809        2.0648383307
 Si        10.9611537363       13.1501121893        4.7165628117
  O        14.3260697768       11.2820169850        5.7602738466
 Si         9.8733194215       12.3888978485        2.0502197613
  O        14.4942808687        8.9024207444        6.5832202479
  O        10.6286332952       12.1837935093        0.6412791869
 Si        13.7995874580       12.7474197412        6.1601312467
  O        13.8408195669        8.9697388248        4.1071644111
  O        10.3942277628        8.1557470438        1.9708418421
  O        10.2153310105       10.5510263841        6.4150213643
  O         6.2525874043        5.0127165168       10.2991300743
 Si         5.7482209784        2.6584856374       12.4192848804
  O         5.0212486203        1.3808908672       12.9392754959
  O         2.8718849061        4.8628203039       12.8377586466
 Si         3.1844292707        6.2123895162        9.4987323209
 Si         1.9445101688        5.8652880063       12.0374680399
  O         3.6189519544        4.6936249705        9.8935210176
  O         5.2964313840        4.0526011024       13.0844829995
 Si         5.0754756393        3.9925798846        9.9012812987
  O         5.3458217081        2.7272001443       10.8642572500
  O         2.7134276259        6.7704733270       10.9403592898
  O         5.1026062811        3.4666486276        8.4167459958
 Si         0.6181377583        0.8786923248       10.3470460911
  O         0.9045329641        4.8633918876       11.3592879553
 Si         3.9359660477        4.3521350451       13.8749437358
  O         1.8947929268        6.3504077350        8.4859454883
  O         3.2084033428        0.3325223375       14.2361246912
  O         1.2374309950        6.9117977458       13.0166467740
  O         7.2500221635        2.4748580084       12.9262828285
  O         2.1386869338        0.5825846997        9.8805436862
 Si         0.2889425839        6.1084661966        8.2041768555
  O         0.3453305661        2.4652519967       10.2908204238
  O         4.5384937687        6.9148968457        8.9739185506
  O         6.4971295690        1.4041670418        7.7385220927
 Si         6.2048441684        0.1765810812        8.7490986239
  O         0.4239008613        0.3303442702       11.8543669496
  O         7.0075068921        7.0080429785       11.6184257295
  O         7.1806026722        0.3271543542        9.9908132297
  O         3.5429704117        2.9862264212       14.5698737587
  O        -0.0857687107        4.7656895154        8.9953298361
 Si        14.7762303171        4.0147781602       10.4110249822
 Si         7.5267674717        5.5661540180       11.1117842072
  O         8.0734670988        4.8481608045       12.4430715267
 Si         8.2769125987        3.6065894708       13.4501362069
  O        12.6852226218        2.6414227728       13.7476814215
 Si        12.2664693427        1.0781679746       13.7728630196
  O         8.7309326357        5.3641414629       10.0501427040
 Si         9.9829879313        5.6740333338        9.0839737420
 Si        11.8156178139        4.5697057197       11.1426263758
  O        11.3738638879        5.3588834749        9.8137026710
  O        13.3309090064        4.1179989122       11.0563380890
  O        11.6101959453        5.5207173832       12.4421545061
  O         9.6613280217        2.7929357676       13.2568877229
 Si        10.3049150105        2.0296024646       11.9559897300
  O        10.9540557501        3.2208914970       11.1201161845
 Si        12.3928671142        6.2661403426       13.6478851568
  O        11.3686053437        0.9054465387       12.4445469377
  O         9.3213844260        1.2557327699       10.9655563491
  O         9.8947773677        7.2443157999        8.8097217261
  O         9.9659731344        4.9319937466        7.6628506900
  O        12.9329029789        5.1058429942       14.6557065632
  O        11.4430890987        7.1785563283       14.5751218241
  O        12.8535182493        0.9012935922        7.4862207766
  O        13.5151838593        7.2486838231       13.0176133084
  O        14.4160388267        0.0862835110        9.3942942078
  O        14.0870306636        7.3322519257        8.5637088840
  O         4.6807637345       14.9076582437        9.3048971033
 Si         4.3182710900       14.7995066005       13.1022115405
 Si         5.7718552396        7.5183462574        8.0796186382
  O         3.6312916804       14.3363113060       11.7375749506
  O         6.6697063900       13.6802090744        7.9906703559
 Si         3.3843124378       14.4179732654       10.1493567052
  O         5.5199246736       13.7566204269       13.4252738648
  O         5.9368941890        9.2178570375       10.6278437446
  O         2.9732109282       12.9320321458        9.7167366928
 Si         2.5964718418       11.4092618413        9.4020349333
  O         1.3001186547       11.0253186622       10.2971653969
 Si         5.2830140113        9.9858046191        9.3760413630
  O         3.7858699054       10.3871446467        9.8012549326
  O         6.1731705888       11.2921765628        9.0416619171
  O         0.8380863128       13.4195289947       13.8285563015
  O         5.2768955677        9.0709834844        8.0083774301
  O         2.4868939120       11.3555817827        7.7706130586
 Si         7.1803415113        8.6006463633       11.4628475188
  O         0.3284344299        9.0667968748       14.0883240704
 Si         7.1461029724       13.6060320697       13.4103619697
 Si         6.3657244414       12.1539826903        7.6792331097
  O         7.3293983626        7.7376095002        8.5766705801
 Si         0.1007311099        8.0353960415       12.8796735749
  O         0.2500043912        8.8057720816       11.4598167296
  O        13.5773536766       15.0099008523       13.8512093731
  O         7.3279339959        9.3904471558       12.8420038579
 Si        14.7915354958       10.1202954959       10.5542673177
 Si        13.1757596284       14.4897130868        8.4700957426
  O        12.1142474228        9.3152315855        7.8351103426
  O         9.4604798718        9.6466822837        8.5518700348
  O         7.4975105185       12.0403230303       13.2604462306
 Si        13.6884828550        8.8153697780        7.9867317996
 Si         8.5059442433       14.7141455902       10.7631085699
 Si        10.7844214117       10.2823286367        7.9016361697
  O        11.8447315931       14.1631455289        9.3075176891
  O         7.9793482653       14.2447273148       12.1997321157
  O         9.4803097392       10.3906226796       13.9259909247
 Si        10.9139467607       10.9189231933       14.4893084238
 Si        14.5757357428       14.1696304739       12.9213441267
  O         7.6660233564       14.3370583054       14.7484576918
 Si        12.6192557987       11.9001145522       11.9983945162
  O        13.6609599753       13.0965621081       12.1826193589
 Si         8.7635654965        8.3306801098        9.0991965883
  O        13.5197997948       10.7861395865       11.2804762779
  O        11.9468099545       11.3711655444       13.3497187264
  O        10.9572356999       11.7194588867        8.6495876818
 Si        10.8621181472       12.9455631998        9.7185561771
  O         8.5578199920        8.7310723079       10.6412004565
 Si         7.8798903641       10.5730598600       13.7760663100
  O        14.3327799384        9.8036181652        9.0590940337
  O        11.3661660389       12.3527814772       11.1182123445
  O         9.3876207279       13.5928375569        9.9699952079
  O        13.5158212933       13.0933563585        7.7162169199
