216
14.912 14.912 14.912
 Si         3.3199676658        4.6657390400        3.7222125486
  O         1.7843060651        4.5505192138        3.1387746758
  O         4.1478912347        5.7957591816        2.8724186729
  O         3.3090552322        4.9757653056        5.3353529043
  O         4.2296782546        3.3281897864        3.4847996874
 Si         5.7808600892        2.8519779686        3.3495426926
  O         5.8047585442        1.5068351910        2.4840153693
 Si         4.5520546335        5.9935034185        1.2947694067
  O         6.4581381428        2.6468336827        4.8072493257
 Si         4.0967016544        4.9245996567        6.7624063523
 Si         6.8038777318        3.4514819581        6.1587462466
  O         6.7940561614        3.8088436852        2.5707788474
  O         5.5338158433        4.3079735953        6.5331883738
  O         5.7105089081        5.0506697678        0.6666605683
  O         0.9993864681        0.8299460827        6.5510512654
 Si         0.1866933272        4.2876526420        3.4272861262
 Si         7.1487115379        4.5525932322        1.1961307728
  O         7.1333098199        2.4669804930        7.3729065855
  O         0.2492694074        3.8876381961        4.9778757163
  O         6.2888871347        0.0814130267        6.7850555741
  O         3.2348700792        5.5520206824        0.5055977619
  O         4.3882107074        6.3885046311        7.3683160312
  O         3.6598993830        0.3279212480        6.5475930559
 Si        14.9351606137        7.1653645945        7.1043451281
  O        14.4967779652        5.6404265574        6.7916345726
  O        14.5733996090        2.9614322592        7.3131210940
  O        14.3345179730        3.0676190735        2.6462421704
  O         8.0255241043        5.7785928659        1.6529994004
  O         8.0224978926        4.4720268460        6.0380983799
  O        14.3340620250        1.0705105466        0.9940751661
  O        12.0152279124        1.9068657384        1.3208440812
 Si        14.2399306430        4.1375820029        6.2635373525
  O        14.0849534811        5.5733367887        3.2357871483
  O        10.1151140471        5.9668465132        5.9683278792
  O        12.0150825360        1.9054584981        4.2286082172
 Si        11.6848076743        3.3990303556        4.6941747572
 Si        12.4730087986        5.8651636565        3.1662163780
  O        11.7584231650        4.4044587958        3.4050800907
  O        12.7083863312        3.9809127795        5.7991873904
  O        10.2721415115        3.3979833033        5.4668681349
 Si         9.5777350140        4.5297382408        6.3907827758
  O        12.0998481333        6.5455515259        1.7471498302
 Si        13.5751521834        2.4590003773        1.3271982753
  O        11.8536240825        6.8757924745        4.2939361384
 Si        11.8313195937        0.3309964452        3.9313469223
 Si         8.5748928448        7.1418589525        2.2097366625
  O        13.7452584539        3.6476309052        0.2558685099
 Si        10.3202159424        7.0545251633        4.8223355406
  O         9.2692849248        6.8734266661        3.6292579606
  O        13.3255293183        0.5827564276        7.1149174002
 Si        11.0972452030        0.9604005179        0.3226589023
 Si        14.6863597075        1.3521634365        7.4774714838
  O         9.6837125623        1.7319542911        0.2481418397
  O         8.0302049763        3.7936082312        0.0861571809
  O         5.0655177430        7.5098943838        1.0149994030
 Si         6.1358206185       14.9345802496        2.9760897534
  O         5.3762984109       14.8369486657        4.3804853152
  O         0.9137637630        7.8787184246        5.9646861747
  O         2.4054666099       14.6770947264        4.5091766324
 Si         2.1738250594       14.7449431080        6.0901194294
  O         0.8228904746       14.6648284146        2.6459069232
  O         1.4059062035       10.5192293514        6.5420948526
 Si         5.0163527151       14.5823930683        5.9192341419
  O         5.5443246919       13.9940433398        1.8164656094
 Si         4.1365413111       13.4944335139        1.2009354586
 Si         4.0003121283        9.7776600825        3.9673386471
  O         2.9575226800       10.4563484910        2.9199124657
 Si         1.9114395217       13.7306910847        3.3349875246
  O         3.1331231147       13.2614855683        2.4191494716
 Si         1.4025388022       10.8838318187        3.1373106094
  O         4.8991197367       10.8441075978        4.7390788212
  O         3.0665475244        9.0269529026        5.0586396082
 Si         1.5185116014        9.2896303649        5.4790187759
 Si         5.8888964755        8.6673818990        1.8128116618
 Si         5.6647237547       11.6839147991        5.8536015168
  O         4.7993357231       13.0129010674        5.9667784394
  O         5.0369106209        8.8695905099        3.1605469138
  O         0.7501487313        9.7850899243        4.1337361044
  O         1.2488027299       12.3415959477        3.8247917011
  O         6.0447833860       10.0147083063        0.9299159761
  O         1.7387976581       13.2477044878        6.4691183273
  O         4.4767478381       12.1528007200        0.4134418654
  O         0.6629112310       11.0170840541        1.7297701113
  O         5.6353958163       11.1877525929        7.3629539445
  O         7.2060045359       11.8426921457        5.3917724660
  O         7.3718753884        8.2047454232        2.2413627599
  O         3.3156539895       14.5047780652        0.2522516887
 Si         1.5286559630       11.9268521650        7.3481304375
  O         9.6921714793        7.5586086402        1.1611046584
 Si        11.2226828506        7.4742416026        0.7407670430
  O         8.8670947551       12.8256965607        7.1992711855
  O        11.8527035003       14.4070318768        5.3096789430
 Si        11.9072751303       10.5120388354        0.1939471377
  O        13.6602762120        8.1306042796        7.3063330920
  O         9.7617663482       10.9304220746        5.7279101939
 Si         8.7472969428       12.1771636475        5.7370576552
  O        13.0691440102       14.7603164332        3.0002601323
  O         9.9435268548        8.4534568164        5.4713295779
 Si        12.3037867972       14.2745505512        6.8498147011
  O        12.9952714601       12.8351903561        7.1317349595
 Si         9.8895294015       12.9629942843        0.5112038542
 Si        14.3033734286       14.6800095047        1.9551371383
 Si         9.1488043814       13.9488172440        3.2348419666
  O        10.3858611722       15.0023501006        3.2302397386
  O        14.1828944063       13.3131224429        1.1459346300
  O        10.6930436205       11.5918072239        0.1714142310
  O         9.2759867390       13.1797503774        4.6255833443
  O         9.2713142757       12.9133388157        2.0019860719
  O        11.6008259070        9.0263874158        0.6703392147
  O        10.8412352435       14.2829534275        0.5825318271
  O        11.4317251675        9.4496250569        7.2831198988
  O         7.7112765094       14.6700671122        3.1455416521
 Si        10.0122166898        9.5929528575        6.5813816120
  O        13.0267480617       11.0366825103        1.2269899563
 Si        14.4253866030       11.7519622595        0.8864650423
 Si         5.5511365542        1.1659169691       10.2225963175
  O         4.9082080483        2.4731269018        9.5230661648
  O         6.2178204092        1.4270214898       11.6537785228
 Si         6.1864680525        0.8242245879       13.1427774820
  O         3.0527534225        3.8120886470       10.6156170560
 Si         2.8855142929        5.1770894430       11.4145787124
  O         2.4035170078        5.2071293793       12.9311642878
  O         1.7475204525        5.9691637040       10.6017968840
 Si         3.4525047315        3.1002466711        9.2368278199
  O         4.3954929750        5.7145885579       11.5809581764
  O         2.4084027820        1.9067897894        9.0121421278
 Si         1.3422586327        1.1244393247        9.9197852065
  O         4.6814100663        1.1490602748       13.6703653162
  O         6.7203829526        0.6621732214        9.2737669214
  O         1.1513088796        1.9724675781       11.2603389193
  O         1.9118081471        1.3237943456       13.6760265524
 Si         0.7001721264        1.9707557933       12.7997293138
 Si         2.2399151904        6.0502408439       14.2810919967
  O         6.7906836297        6.7092147034        8.6906138987
 Si         0.5980376643        6.8927883034       10.0001647216
 Si         3.2446061541        0.3961034202       13.7816089482
  O         6.7073407457        6.9575840303       11.2628007559
 Si         5.2950161891        7.2642867249        8.3477584752
  O         0.7361204495        5.6363945670       14.7509683154
  O         3.3923357010        4.0612929474        7.9433322290
  O         0.4839474167        3.4911829919       13.2519338472
 Si         7.2047462371        0.9256185618        7.7800116066
  O         0.9141803373        7.1266129919        8.4429468974
 Si         5.0948725346        7.1107625546       11.2669933902
  O         0.0113907158        0.9959902803        9.0352424090
  O         7.3057389966        1.5733808380       14.0007166249
  O         4.5662324869        7.4611612842        9.7770578995
 Si        14.5850543442        4.5668247647       14.1314632990
 Si         7.7404312021        6.9332773208       10.0007775023
  O        14.1758807033        1.2373618067       12.8393360390
  O        13.5141865245        5.4599823044       13.3379447759
  O         8.8563765058        5.7934142786       10.0216057651
 Si        10.0910830086        4.9154834998        9.4586400281
  O        10.1899541863        3.6469675344       10.4429175238
 Si        10.6282355745        3.3632832438       11.9661559407
  O        11.0950395811        4.7225039187       12.6771969673
  O        11.9252468256        2.3984791785       11.8483290885
  O         9.3695864195        2.8146748771       12.8360740040
  O        11.4534165259        5.7953829862        9.4712023195
 Si        12.0241480121        5.9776449490       13.0219582875
 Si        12.6172364963        1.0741605030       12.4613555266
  O         9.8543912590        4.3801893178        7.9633844150
  O        11.8467007823        0.8380227704       13.8329718221
 Si        12.4671947230        6.8248969749       10.2020279311
  O        14.0033101866        6.2945053858       10.1022375235
  O        12.0927683334        6.9609500330       11.7557812990
  O        11.3636816144        6.7891130337       14.2213005862
 Si         8.6034056022        2.4943464716       14.2313271108
  O         8.7177960857        0.4320865490        7.7110006013
  O         4.4611603907       14.9089401380       10.3670883822
  O         1.8990678769       14.5674490854       10.2747925099
  O         2.6441487129        7.6155677371       14.0807573279
  O         3.1510616019       14.2488151289       12.5762749695
 Si         3.2543566959       14.0534856547       10.9897627689
  O         0.6527189662        8.2817231300       10.7774205458
  O         6.4753207845       11.5988413210       13.7515064465
  O         2.2313209615        9.5331402937       12.5063223524
  O         4.5598995005        8.1914247316       12.3165461061
 Si         5.5933033238       10.1275428859        8.5282946241
  O         3.4777566136       12.4930783952       10.7568652580
  O         1.8121964782       10.5214454930       10.1982719818
 Si         3.1320034780       11.3003898115        9.7381973741
 Si         1.1140184108        9.6835297923       11.3741386749
  O         4.4138694245       10.3485497321        9.6017157563
  O         2.8283438354       11.8572079144        8.2762291675
 Si         3.4245110503        8.8063707094       13.2854610048
  O         4.2250363744        9.9425385726       14.0810523693
  O         6.9556377740       10.2633054352        9.3629938241
  O         6.5441901547       14.1516956478       13.1708509093
  O         5.4616441256        8.7302322199        7.7269159896
 Si         5.3279976539       10.9365376322       14.7144277285
  O         0.2566004956       12.1794989949        8.2912257609
  O        11.0341497319       14.3238078338        7.8513512298
 Si        13.8465684651       11.1874497871       13.0139971420
 Si         7.4756395549       12.8170509197       13.2897849104
  O         8.9337838445        9.5373568199        7.7799629946
  O         8.5418728788        8.3318215944       10.0233513428
  O         8.2006208754       12.5064264297       11.8595129014
  O        13.0058287340       12.8382865132        9.7579869974
  O         9.1964153706       13.5063331032        9.6154982238
 Si        12.6934276154        9.0882900844        8.1765902526
  O         8.6909568409       13.0879564692       14.3378127364
 Si        12.3626640103       13.1725800450       11.1954048424
 Si         9.4819889423       13.9966827926        8.1105659294
  O        12.5949862547       10.3723798072       13.6417819456
  O        13.2624835058       12.5138471949       12.3427182547
  O        14.6781138015       10.3581847995       11.9303418282
  O        14.8170222931       11.5900296705       14.2428636819
 Si        13.5817919664       12.0899923004        8.4540597827
  O         9.3589036674       10.8729540256       10.1005797265
  O        13.2665787827       10.5210591666        8.6034620398
  O        12.4165351654       14.7631774457       11.4345420744
 Si         9.3751429589       12.3667426311       10.7505740110
  O        10.8574688221       12.5967226961       11.3520160927
  O        12.3389342710        8.2811901096        9.5243653319
 Si         8.4835255237        9.7729802266        9.3148105736
