216
14.934 14.934 14.934
 Si         3.1268985769        4.4553249963        2.1389669025
  O         1.7432758392        3.9816335913        1.4887399543
  O         3.3127349478        3.0912830199        5.9681115399
  O         5.5585344942        4.1465095671        5.0627125825
 Si         4.2221571540        3.2748912001        4.6464140082
  O         3.2320473754        4.0749015957        3.6787580374
  O         4.5652497580        1.9148563307        3.8187710679
  O         4.3084222551        3.7300949237        1.3283140568
  O         3.2330318123        6.0591081652        2.1529733522
 Si         5.5344944444        5.6531283832        5.7136090671
  O         4.0621519486        5.7229398924        6.3144124339
  O         5.7260148324        6.7286127083        4.5417163300
  O         4.0718784166        0.9080504369        6.7285538085
  O         6.8935093245        4.0613771020        1.2527991596
 Si         4.4470906225        0.4362521329        3.1614931150
  O         6.5488044756        6.1410597487        6.8911684123
 Si         0.3254909972        0.6081517740        5.5423991133
  O         1.5751066263        5.5685929487        6.9774337279
 Si         5.6017689098        3.7083022523        0.3869917878
 Si         3.4113176536        2.2502630174        7.3286611353
  O         0.3335165599        2.1629762931        5.0703560726
  O         0.3380506208        6.9737034426        5.0552965866
  O        -0.0056406186        0.4177086771        7.1271806307
 Si         0.1619738567        5.9609530461        6.3215020722
 Si         3.8263562353        7.3908212561        1.4807083473
  O         3.2351838811        0.1598130756        2.0778017329
 Si         0.1763321612        4.2644162647        1.7257496413
 Si         2.9994254312        6.1555573282        7.4225544605
  O        14.7670854700        5.7228287779        1.1591459024
  O        14.4393277829        4.5869498811        5.8235187569
  O        14.8591652680        4.1480048054        3.3027989181
  O         9.3625090767        4.2389156332        0.2374625277
 Si        14.4057431267        7.0397722445        0.3381927051
  O        14.2103864763        3.2138077936        0.9179101705
 Si         8.2307707550        4.9351258343        1.1455482040
 Si        14.3896450545        3.4665532074        4.6733601507
  O         8.7986591647        5.0493892372        2.6614248898
 Si        10.2551809540        4.6768227628        3.2821826194
  O        10.3089547557        3.4837165171        4.4103906753
 Si        11.4615090088        2.3942749360        4.8679793164
  O        12.8570310955        3.0675103464        4.4770624090
  O        10.8077893158        6.1555478518        3.7387767950
  O        11.0451163515        3.8922418539        2.0893451138
  O        11.5385955114        0.8527037747        4.3186517696
  O        11.3635564338        2.1646547696        6.4411608444
 Si        10.5664304295        3.2714644484        0.6728574254
  O         9.9606808678        1.7331654882        0.5735845764
  O         7.8875413743        6.3124483590        0.4127676109
 Si         7.7554716099        7.2088057483        7.1765650989
  O        14.1822645513        6.6447864589        7.4726181035
  O         9.0418507374        6.2287958050        7.2160394277
  O         5.8014920470       15.0242218919        2.3304189443
  O         1.8390691557       14.9365328294        5.3950624712
  O         4.2211262144       14.4252802811        4.4660354220
  O         2.0653059007       13.0112908718        0.5842185472
  O         6.0427748608        9.9540846268        6.9730052127
 Si         3.3917946132       14.6587774266        5.8314377186
  O         5.0418550064        7.9494729383        2.4109411419
  O         4.6349031772       13.5232174059        0.5860282212
  O         3.6307131039       13.4569668263        6.8829912457
  O         2.8301648796        8.6202110975        1.5730478599
  O         1.4320589103        9.2104455322        5.7352340542
  O         6.1513616119        9.3786815412        4.3311217788
 Si         1.3383319071        9.1505789584        1.7048525435
  O         3.8080996915        8.4632211253        4.8926587372
 Si         5.1526763744        8.1401832432        4.0177209074
 Si         2.9378526792        8.9023357340        6.2037654962
 Si         6.9907314664        9.6645700757        5.6827078360
 Si         6.1091990473       14.0901461394        1.0300414594
 Si         3.1405507388       14.2020052698        0.6982165107
  O         0.8346388944        9.0344217896        3.2290359637
  O         1.4067451498       10.6179270400        1.0750225461
 Si         0.3819385311        8.5657236314        4.6950252055
  O         3.4898259363       10.2060774425        6.9637206157
  O         0.4142281004        8.2121582706        0.8306945400
  O         7.3077787054       13.1003540701        1.4964230364
  O         2.9708164749        7.7654024140        7.3630724573
  O         8.2944904289        8.8047712639        0.6717197022
  O        12.8597082923        8.8764232102        7.3043118629
 Si         9.3883240222        9.4141581395        1.6893825500
 Si        12.2872589821        8.7474966377        1.2745888391
  O        10.0237659149       13.3687159460        1.6496009510
 Si         8.6790451261       11.6660564985        6.8109551623
  O        12.8533653386        7.4001737079        0.5909535377
  O        13.2854626893        9.9346622521        0.8165896658
  O        14.0962071616       14.8480627223        4.6468320426
  O        12.1963642799       13.5121849539        5.7165778600
  O        11.3018913355        8.3840161492        5.2060249558
  O         9.6244711247        8.5421414017        3.0646572735
  O        12.1174792200       12.1261922990        0.8359690985
  O        13.8440354615        9.1337726932        4.9017764310
  O        12.1896703580       10.8729067199        5.8040861563
  O        10.8086374776        9.2861422763        0.8967159592
 Si        10.9365717599        7.7986781855        3.7286385415
 Si        11.7250096974       12.2093361237        6.5744052029
 Si         8.7645227916       12.3943625671        1.2498270402
  O        12.1873117340       14.6035874328        0.4051804705
  O         8.9612738116       10.9542795667        1.9909038643
  O        12.1921072774        8.2993331727        2.8235878104
  O        10.1257151612       12.2702022677        6.5401289024
 Si        11.6476618530       13.5092645879        1.5041738994
 Si        12.5244337359        9.3034232133        5.7945197477
  O         7.8054141087        8.2922550255        5.9810561300
  O         7.9729584097       10.9362582363        5.5444089576
 Si        12.5131846149       14.4722335542        4.4308881815
  O        12.2828082421       13.7649053048        2.9765653487
 Si        13.1819152286       11.3073341907       -0.0436980735
 Si         2.4820910532        3.8718775663       12.1892667944
 Si         5.9563757512        1.0502395425       13.6121833814
  O         2.5623108775        2.4089054571       12.8728252008
  O         3.3994362967        3.8203614434       10.8700456157
  O         5.6483498088        4.6451522253        9.9533347560
  O         0.9973324554        4.2404819585       11.7069564533
 Si         4.1555366857        4.2803286256        9.5337492784
 Si         0.7484328630        0.9536740481        8.4591851087
  O         3.4042198799        5.5565930993        8.8679617608
  O         4.5741804812        0.6555128578       12.9374858726
 Si         2.9954254771        0.8606554659       12.9844750590
  O         2.9810092167        4.9849468978       13.2715524737
 Si         4.2750773653        5.8438580304       13.7196850107
  O         4.2266070586        3.0657753885        8.4547369506
  O         6.8075168987        1.3301585693       12.2787245645
  O         4.8917792512        6.5557152206       12.4461523055
 Si         7.1129640417        4.9346129998       10.5236343417
  O         7.1428045965        6.3936500588       11.2042092384
  O         2.0046647915        1.8272562728        7.9654060947
  O         5.4063790866        4.8144193504       14.1892745054
  O         5.7987933966        2.3105008539       14.5941740832
  O         2.6475812444        0.2541819430       14.4391880495
  O         4.0694602275        6.9721226097       14.8666461957
  O         2.4008260690        0.0798021268       11.7098133965
 Si         6.2378818745        7.3708685499       12.1131068341
  O         6.5654371803       -0.0777127128       14.6045051589
  O         7.5465177074        3.8144324755       11.6121423920
  O        14.7563440774        1.9936108800        9.2274877142
 Si        13.4147270633        3.0384373162       14.4683149364
  O         8.1311616310        4.8956439893        9.2918201105
 Si         8.0255207237        2.3160550966       11.9235317805
 Si         9.7224243354        1.0824879906       14.0040872172
  O         8.8793872570        1.7440797000       10.7042715629
  O        13.9502484015        4.0736868427       13.3729595221
 Si        14.3576366188        4.5217955425       11.8814331863
  O        13.5257991490        3.6323073484       10.8608738632
  O         8.8841112218        2.2404257284       13.2774976842
 Si         9.4331691210        5.2084858134        8.4113388330
  O        13.9367380877        6.0459283861       11.5312760948
  O        12.3693030538        2.9092018697        8.7158933799
 Si        13.3534714115        2.4014536872        9.8724192975
  O        10.5356941181        5.9675588782        9.2786274196
  O        10.3740114703        1.3085607851        8.6382544409
  O        12.7787039299        1.1463908594       10.6938114602
 Si         9.5994572129        0.6008074110        9.8376197109
  O        11.1799420921        1.0795735011       13.3524167854
 Si        11.0206226813        2.5798809921        7.9308415810
  O        13.6074713870        1.4890845457       14.0247790465
  O        10.0303743756        3.8315660653        7.8795039436
 Si        12.4959984049        0.3258835534       13.8808672404
  O        14.6778796220        6.9850164760       13.6887276248
  O        11.8610771204        3.3942691457       14.6790839929
 Si        13.7418141608        7.3750677638       12.4262470324
 Si        10.9395057783        7.4356005654        9.7594421885
  O        12.5204883237        7.5509460520        9.4616616534
  O         1.1599983718       14.6770597147        9.4505986015
  O         4.8971955348       11.9366278322        8.3814836065
  O         5.9025277273       14.2722423157        8.3746970078
  O         5.6434934268        8.6316845320       11.3698185292
  O         4.7299778288        9.6395083427        9.2952695775
  O         1.8219653924       11.3715743516       13.3741206705
 Si         2.2950776405       14.0464917632       10.4268326752
  O         5.9816036132       11.1245691578       11.2805473812
 Si         4.9346984845        9.9679495816       10.8772263678
  O         3.5819400283       10.4504104618       11.6133627401
  O         3.6439030739       14.0149119079        9.5356207332
  O         1.9990992216       12.5521498532       10.9661719643
 Si         2.1409496782       11.1545653093       11.7838886432
  O         1.1619453607       10.1238948618       11.0359201626
 Si         4.4904333089       13.4780992699        8.2723514820
 Si         4.7902765936       10.4237912137        7.8874402651
  O         7.1227428769        7.8688947695       13.3742790134
 Si         1.2759531421       11.7554318446       14.8764549919
  O         7.3898105172       12.4407757072        9.6403178587
 Si         7.3734978155       13.6340409090        8.5911314399
 Si         7.4956371134       11.4941885542       10.9068569483
 Si         8.7068758078        9.3654964128        9.0477985983
  O        14.6132982559       12.0354428926       14.7708976793
  O        10.4569442597        7.4642157671       11.2827391535
  O        12.7728831450       14.2815990643       12.6117493787
  O         7.7936547607       12.9436212142        7.2052065775
  O        10.6233688316        9.7215231794       12.6167088777
  O        10.6294588798       14.6743604471       10.7733735138
  O         8.2845296414       10.1183056693       10.4431941497
  O         9.7028669959        7.5442893293       13.7765778827
  O        12.2669956637        7.6381663919       13.0207567857
  O        10.1820561395        8.7036196420        9.1066419723
  O         8.1334008834       12.3671845583       12.1142267153
  O         8.4548542218       14.6799565558        9.1269376554
  O         8.7923211599       12.1075242888       14.6020036552
  O        14.0961841228        8.7191958799       11.6119663157
  O        12.2005710000       12.1056273042        8.1405421735
  O        13.9353326997       10.9420573217        9.8739947458
  O         7.7216146150        8.1318942434        8.5467838483
  O        11.6223847728       11.2812426152       10.7775825382
 Si        12.2507611390       14.6134240639       11.0837756412
 Si        14.7214809151        9.6175273503       10.4090007895
 Si         9.1308660152       12.9210765301       13.2632363415
 Si         8.2559603401        7.6289326438       14.4974986360
  O         9.1308789341       14.5153449975       13.6888966532
 Si        11.3970943555       11.1184486124       12.3796867187
 Si        12.6658006705       11.9315931151        9.6980542138
  O        14.8383356737        8.6298696203        9.1201978406
  O        12.9390712444       13.4460049575       10.2025111870
  O        10.5967218767       12.4534498338       12.7959019918
 Si        13.6224143583        7.8941117905        8.3274389667
 Si        10.7600765922        8.1103223516       12.7088400497
  O         8.7906104458       10.5389220587        7.9571988898
  O        12.6936157750       11.1031244670       13.3561529766
