216
14.84 14.84 14.84
  O         3.1413412407        5.8641428551        4.7731979129
 Si         4.3244204963        6.0606800563        3.6609539624
  O         5.6131533650        5.1964348487        4.0343656347
 Si         4.1164676532        2.7880338311        6.4689252408
  O         2.8007329869        2.5521106640        5.5251264444
  O         5.4466129862        3.2239066720        5.6957821061
  O         4.1183902516        5.6901114383        2.0830788663
 Si         2.0566160666        1.0929616398        5.5033367138
  O         0.7517112288        6.6809397588        5.1879305113
 Si         6.1208108333        0.7326843080        0.8393624590
 Si         3.4137231568        5.2171943498        0.6939564854
 Si         2.2164105607        6.6778677459        5.8531470989
  O         1.9036249478        5.5995443036        0.9868565407
 Si         0.5845252565        6.3234218452        0.5208606191
  O         0.4925185468        1.0722501005        5.1050613878
  O         4.6822625674        1.4134005959        0.9002125553
 Si         7.0167450907        3.3077905185        6.0638879998
  O         3.3840500149        3.6209394116        0.4127365091
 Si         7.2053417324        5.2474152452        3.8609694551
  O         2.1402334500        5.8522739877        7.2404205488
  O         6.3475924193        0.2522086204        2.3250335156
  O         7.1809686643        1.8065025255        0.3303622671
  O         2.1338365057        0.4931622656        7.0163314856
  O         4.5490347960        1.3738165600        7.1085525217
  O         7.7501889895        4.3697830840        5.0941499437
  O         7.3276524285        6.2782180197        0.4949911913
  O         7.7406745374        6.7626076338        3.8716477060
  O        14.3239476579        5.8530232581        1.5625461067
  O         7.6828876725        4.6065939481        2.4609225500
  O        14.5188483872        4.2792238932        5.8546366737
  O         7.7478925201        1.8849695171        5.9324601378
 Si        14.2706921094        5.8129231159        5.4342893837
  O         9.7188160314        1.5711015563        0.9868120002
  O        13.5223030556        5.6834771816        4.0358593748
  O        14.1496333865        3.3975668650        2.5410723371
 Si        13.3664645556        2.0602289714        1.9776096724
 Si        13.5522951477        4.9309563252        2.6167723993
 Si        11.3388589673        5.5933505917        0.8318800979
 Si        11.3565891475        1.2467095022        3.9215795038
 Si         8.3201890425        5.1263642142        1.0721514208
  O        12.0222789459        5.0126278896        2.1559437874
  O        10.0674711286        1.7248798116        4.7725703677
 Si         8.7924338407        0.8496315925        5.2976325786
  O         9.7890533259        5.7655747127        1.2233754230
  O        11.9610689295        2.2135818202        2.7903596101
 Si        13.8852055747        0.8929810810        5.8526672563
  O        12.6196917556        0.9966080394        4.8696324124
  O        14.0935172108        0.5814594302        2.1430101190
  O        13.5164718672        6.5095964991        6.6848382138
  O        13.0148930110        2.2404499549        0.4174742778
  O        13.8379801031        2.0320053487        7.0053927822
  O        11.7972697195        7.0721850786        0.4121176748
  O        10.2197586266        6.9958267882        6.1008286481
  O        10.7925779571        0.0064477878        3.0419626560
  O         8.5708668913        3.8878891679        0.0991361593
 Si        14.4119554520        3.5077530829        7.2665554286
 Si        10.2321429382        0.1240546461        1.5172618893
  O         8.0822383666        0.0019564186        4.1336745830
  O         3.0570997821       15.0055706399        4.6211664836
  O         4.7041608653        7.5858642440        3.9591180020
  O         0.8179454067        7.9097815712        0.6523960243
  O         2.5682911014        8.2029044211        6.2705936635
  O         4.1169804724       13.6952004397        6.6732724594
  O         5.6091606298       13.9410284113        4.5349686854
  O         4.2696986490       10.1435047295        4.2089096281
 Si         5.1568896398        9.0375366515        3.4920188054
  O         4.7708510673        9.0608533297        1.9606445056
 Si         4.0840860248       13.8015571836        5.0280906779
  O         3.4628459565       12.5472143694        4.2834055363
  O         1.7407023857       10.8752659412        3.3077865113
  O         6.7502647269        9.2208033877        3.7153433980
 Si         2.9459641446       11.0505275861        4.3656881285
  O         2.3996956806       10.7999699977        5.8462407756
 Si         6.8123417755       14.1104881765        3.4841634661
  O         1.3242987353       14.2645161793        0.9781942387
 Si         0.3084681519       11.0925426377        2.5826763123
 Si         2.3634542497        9.6630627060        6.9758044399
  O         0.4987360267       10.5470784930        1.0648350044
 Si         4.8901533677        9.3865375205        0.4251030728
  O         6.3474473143        8.8200683843       -0.0081024831
 Si         0.1512478930        9.2826990054        0.1239546965
  O         7.2551815306       12.6960036799        2.8054768979
  O         4.5410540127       10.9602200841        0.3220588131
  O        -0.0805441180       12.6942121328        2.5607200725
 Si        12.9155087842       13.3043364613        7.4743236730
  O        11.2931052846       13.1093702753        7.2569698884
  O        11.6162667286       10.7994664354        3.5543632291
  O         8.2455534249        8.3320740270        1.7561573523
 Si         8.0250569743        8.2690563091        3.3687352049
  O        14.0203789138       10.1413806286        3.2986746201
 Si        11.8762112148        8.6451132271        0.1163875945
 Si         7.6192307804        7.8786707295        0.3293964073
  O         9.4230873904       11.3772107304        2.0585337497
 Si        10.9773616848       10.8838201609        2.0535922577
  O         9.3191584470        8.7348295705        4.1929473376
  O         7.6628343067       12.1942262635        0.1663297938
 Si        14.1033291961       10.3617960942        7.2741523359
  O        13.4105257033        9.0850285838        0.1664188199
  O        11.8658526669       11.9552174818        1.2427658148
 Si         8.3418943405       12.4910354072        1.6162738744
  O        13.7714593593       11.9420243497        7.4217130806
  O         9.0071975874       13.9416931489        1.3907609180
  O        10.1425088027        9.5630760365        6.5190413887
 Si        14.6797488568       13.9869339835        1.5390400786
 Si        10.3995569143        8.4420866402        5.3605728004
  O        11.4545863115       14.5087061415        0.5923381787
  O        13.5203904514       10.0759354291        5.7796819250
  O        11.0552626745        9.4821434381        1.2363738164
 Si        12.7734809021        9.9136072826        4.3394717509
 Si        12.1842633262       13.1323454175        0.2075913484
  O        13.6837108283       14.2599184485        6.4369890537
  O        13.7561914855       13.4545552621        0.3152647892
  O         9.3154802593       14.5944944803        6.3352484919
  O        11.8786173830        8.5767929247        4.6897508433
 Si         4.9715399403        3.0177845379       11.8842982192
 Si         2.4051025852        3.8627676714       10.8749887334
  O         3.8737823166        4.1161653110       11.4650479937
  O         4.7082837823        2.4766855677       13.3646887640
  O         4.7073260192        1.6627766868       10.9735990516
 Si         3.3018306032        1.0487342483       10.4076782074
  O         6.0979221303        6.2782202641       10.4719279524
  O         2.3830787691        2.3758577985       10.2192868043
  O         6.3452257671        3.8654835177       11.7904753287
  O         1.4040664581        4.0420856594       12.1209556702
  O         2.2190228754        4.8793729024        9.6442673870
 Si         2.2923463804        4.4947884800        8.0784545667
 Si         7.0832315880        5.1641319269       11.1409724129
  O         3.9513842516        6.0068132992       14.1962725244
  O         2.6387595285        1.0826493164       14.2668485347
  O         0.2457008465        5.8550528072       13.8500839228
  O         1.0733531765        3.4605734863        7.8328334517
 Si         3.7942210522        2.1749534855       14.6497972399
  O         3.6305243536        0.0840439240        9.1452467001
 Si         3.7119715318        7.3840081409       13.3524958207
 Si         3.6236429871        0.1306294439        7.5528646470
 Si         0.0611848509        4.7079962047       12.7210314483
  O         7.1611763038        3.7934478907        7.5873194457
  O         3.6937015953        3.7978668981        7.6609935395
  O         2.3920185427        0.0806084296       11.3040255106
  O         8.0061780325        4.5375443738       10.0020169081
  O        14.1877282369        5.3688337361       11.4579120111
  O         9.3227388488        5.1271198490        7.9053534614
  O         8.0002770743        6.0086178290       12.1953349036
  O        11.5316476895        6.2572750594        8.3238933953
 Si        12.5943390303        3.2140993544       14.0392959349
  O        14.0083739758        3.5493376495       13.3541622661
 Si         8.4129025892        3.9462469274        8.5856233922
 Si         9.3282356241        1.0843530994        9.7161011664
 Si        10.4025667346        1.6220895632       12.4971780954
  O        10.2320285667        1.7254662570       10.8953917220
  O         8.9078091962        2.3931965182        8.8267113188
  O         9.0675375931        2.0675330568       13.2785421717
  O        11.6895282635        2.4667469547       12.9473858816
  O        13.7734311262        6.7686973429        9.3648069907
 Si        13.0819630639        5.9725156735        8.1552450577
  O        13.4440192183        4.3828626728        8.2302845661
 Si        13.7918194252        6.8405917121       10.9713084403
 Si        10.0973737857        6.5394934901        7.6721506422
  O        11.7804189687        4.5388720436       14.5103556401
  O        10.5526409705        0.0913355010       12.9421685274
  O         8.2502969918        0.0825344102       10.4734864327
  O        10.0649405985        0.0063008075        8.7562243189
  O        12.3676621796        7.0974772722       11.7013745788
 Si         8.6520967089        2.2969256779       14.8172349783
  O         4.7861098154        7.6699905551       12.1887023258
  O         2.2326703496        7.4482924223       12.6915290510
 Si         5.8333842706        7.8189890389       10.9528736818
  O         1.2469015606       13.8430309883       13.2374618371
 Si         4.1829800936       11.9880190464       13.9685258575
 Si         1.3736447573       13.7128377444       11.6290260995
  O         1.9846471702       12.3455597578       11.0448034883
 Si         2.8732697055       11.0493001724       11.3387225249
  O         5.3512119507        8.8040022086        9.7545305819
 Si         4.8171423880       10.2188430450        9.1055967232
  O         6.0860869984       11.1356597221        8.5708159851
  O         2.0561884750        9.6534055269       11.2191066075
 Si         1.2397906980        8.6400093634       12.1874013690
  O         4.1130176781       11.0408737423       10.3112599305
  O         3.3116221791       11.2079196514       12.8763755224
 Si         6.8476163954       13.0934649836       13.9112315366
  O         0.6611839004        9.4860600663       13.4433021747
  O         5.6080467618       12.2913199534       13.2758396114
  O         3.6272131304        9.8947777673        8.0042203789
 Si         2.1865849475       14.3613089065       14.4542908564
  O         3.7909977261        8.5821509651       14.4234439042
  O         3.4598263071       13.3392826427       14.5072635070
  O         7.2446963602        8.3961360240       11.5437378798
  O         0.0088866899        7.9881888037       11.3823032194
  O         6.1895089658       14.3390883952       14.6711749854
  O         0.8186177307        9.8889997983        7.5037822779
  O         9.8553279724        7.9102481067       11.6169261572
 Si         8.3596801029       13.4504495812       11.1981801506
  O         9.8876134222       12.9379187240       11.4565262372
 Si         7.6602173081       11.6186031750        8.8168825699
  O         9.5681401937        7.9054384246        8.4141248684
  O        13.1225557906       13.9567250882        8.9251707225
  O        11.9748544667        9.4768782833       10.9577996754
  O         7.7436821814       13.5907096726       12.6815127196
  O         7.6667599666       12.2892763892       10.3011038671
  O        11.3775529770        8.9060314554       13.4462642732
  O        12.2903234312       13.8607524657       11.3764126762
 Si         9.8086665960       13.7438901847        7.5923235072
  O        10.8779931192       10.3831298119        8.8954382881
  O         8.5711717457        7.9986642297       13.8643708853
  O        14.7614990037       13.6944762816       10.9556168160
  O        13.0160009654       11.6811090441       10.1427766732
 Si        11.0827522784       13.5521460012       12.3493397705
 Si         8.4319109420        7.5846420947       12.3023785842
 Si        11.3781427107        8.3523591273       11.9372610988
 Si        12.3155670277       10.3102332728        9.6297557389
  O         8.4038841128       10.2137441338        8.5672218431
  O         8.5778468433       12.6941514776        7.9257089432
 Si        13.3424201890       13.2617494348       10.3494569680
  O        13.2825177822        9.6497294130        8.4958612562
  O        11.6284124214       12.6836237574       13.5973831181
 Si         9.7668504743        9.5034319024        8.1055998529
