216
14.964 14.964 14.964
 Si         4.5869948377        4.8544819947        4.4666686025
  O         5.0636403452        3.6587395886        3.5007048189
 Si         2.7971885448        3.3435341875        6.6103471701
  O         5.9108873543        5.8359187545        4.6001286504
 Si         6.2179682303        2.5744729441        3.7961254487
  O         5.8450890421        1.1722126908        3.1183015538
  O         3.9691740010        4.0535590819        5.7535463732
  O         6.3171799977        2.3385819474        5.3905005767
  O         3.3542922328        5.7055817598        3.8926942719
  O         1.3933219388        4.1291643904        6.3105807166
 Si         2.5881257292        6.9572815703        3.2255403295
  O         0.9852484009        6.7052984307        3.2749425903
  O         4.5169930679        1.6315956387        0.9140448369
  O         2.4977267368        1.7225559008        6.6371132387
 Si         5.0826427143        0.4824236704        1.8870050545
  O         4.5221483089        5.3719379697        0.5358554979
 Si         4.3027080034        6.9683077325        0.7429803850
  O         3.0325992131        7.1016154308        1.6934022637
 Si         0.2518816040        4.3515917701        7.4480467920
 Si         7.3815157158        6.5007051974        4.2745241258
 Si         7.3279994404        1.9295696569        6.5765758280
  O         7.5817872873        3.1822657511        3.1988151218
  O         7.4066462854        0.3116264544        6.6305662574
  O         7.5662320737        7.0908033878        2.7546776348
 Si        10.2772880208        2.8902481872        6.4432451975
 Si         8.9943733743        3.0255170056        2.4355574355
  O         9.9640552959        4.2802866157        2.8100874662
  O         9.7499361541        1.7093539255        2.9439553950
 Si        10.1046917777        5.0730644657        4.2367042696
  O        10.6803071158        4.0481451484        5.3727561908
  O        11.0645401302        6.3936856234        4.1336466821
  O         8.5755939161        5.4679647783        4.5975365784
  O        11.1415379941        1.4997656132        6.3102441328
  O         8.7575957123        2.4980575098        6.1537833968
  O        13.6386665020        6.6210389083        1.6992873314
  O         8.6624157101        2.8035725745        0.8676069397
  O        12.1652154763        6.8526529461        6.3973341819
 Si        12.8897570150        6.4962942649        0.2662026505
  O        14.1265791914        5.5309751655        7.2535835593
 Si         9.7954913810        0.1190398552        3.1022725727
  O        11.2922443744        6.1644151315        0.3087721088
 Si        14.5211999843        7.3682895075        2.8401465099
 Si        12.1119977317        7.4019860961        4.8968647678
  O        13.5479734502        7.4074255507        4.1339740003
  O         5.6114931674        7.7176857432        1.3083914342
  O         6.1796813677       14.5644304714        1.0926596840
 Si         2.8493221237       11.3709091289        0.3906244748
  O         3.1172959667        8.3357165193        3.9018464532
  O         3.8275125047       14.5876156229        2.4057433950
  O         5.5268684311        9.0420479315        5.0575959531
 Si         3.9181284325        9.0124081160        5.1159495293
  O         4.0455327568       12.7800970753        4.2219419291
 Si         3.1886293311       13.2131732459        2.9274530901
 Si         3.7282163317       12.0703715177        5.6410706546
  O         3.4387232947       10.5225771505        5.2996665830
  O         1.6320283544       13.3291426559        3.3581582160
  O         3.2772338039       12.1549737922        1.7161443918
  O         2.3434595053       12.6229136109        6.2330581721
 Si         6.8381837674        8.8938866079        6.0013038841
  O         3.5874939743        8.1101906539        6.4056140555
  O         4.9917018137       12.3203410996        6.6333561217
  O         1.8749092520       10.1416576549        0.8544705315
 Si         1.0194889617       13.0087212305        7.0557853276
 Si         0.3347644716       10.1129516874        1.3974108181
 Si         7.1506030304        8.1245662515        1.5614919462
 Si         0.2009920784       12.9299249543        2.7123019164
  O         7.2537834172        9.6679745734        2.0215649178
  O         0.0891173877       11.3493251562        2.4116858093
  O         0.2347913782       13.6349516177        1.2532640064
  O         1.1734757197       14.5650494144        7.4024438505
  O         7.6538984696        7.7126753164        5.3043939207
  O         7.3299809972       12.2447896644        1.4053346197
  O        14.9624046242        8.8049018044        2.2642847107
  O        13.9563146553       13.3197662628        3.7453067281
 Si        11.7746056624       13.8471454860        1.3589911464
  O        11.2458591804       14.4876818264        2.7234708542
  O         9.8111211411       14.2553194870        7.0953062845
  O        12.2246179924       14.1043776434        5.6940068774
  O        11.2135734157       10.6227244283        3.3391186145
  O        11.6915727973        8.9485871644        5.1396754857
  O         9.8139828434       14.8140170253        4.6845605537
  O         7.6295797155       10.2933620349        5.9972700151
 Si        10.8180406111       14.8967743251        5.9562995879
  O         8.1835693302       12.8740733096        5.5428556259
 Si         8.5568607782       11.3530079180        5.2178571321
  O        11.8462064861        9.6520659915        1.0685969834
  O         9.5853328600       10.9841371150        1.3892991804
  O        11.9987109322       12.2456939202        1.4726958341
 Si         7.6061752754       13.8136277587        1.0971045695
  O         8.0999728007        8.1080309286        0.2309269555
  O        14.2599927923       10.1400230378        0.1526263320
  O        14.5968807744       12.8643535709        6.2434300036
 Si        11.1486116242       10.9002126542        1.7955396883
  O        12.6277018838       11.5274894261        5.2984587600
 Si        13.3362004840       12.9865960260        5.2388349338
 Si        11.4372368637       10.5161130751        4.9027410279
  O        10.0778205350       10.9959501953        5.6218042344
 Si         8.2321096611       13.8899202639        6.7972691956
  O         8.3468513881       11.2872291810        3.6461962777
  O        13.0118801469       14.6626248017        0.7807358338
  O         8.5760849223       14.4143592482        2.2682677866
 Si         8.1183756701       11.0242258830        2.0973157671
 Si        14.3834584439       14.2973479168        0.0330204060
 Si         1.2681423070        6.6714093653       12.0431300924
 Si         1.3498731475        2.0529683363       10.6092807865
 Si         3.5668002681        3.8714428179        9.6383504395
  O         2.5656116321        3.1239649788       10.6735671823
  O         5.2126781758        5.6188954884       13.0265431837
  O         5.0751313041        3.4227892599        9.8199208523
  O         1.0092275597        6.6318561629       10.4665869240
 Si         6.2619746060        2.4059412665        9.4393691681
  O         1.2531276988        1.3996072068       12.0827076660
 Si         0.9433867047        1.7856495238       13.6319535084
 Si         1.9330871896        6.0695412904        9.3078123990
  O         3.3461617296        5.4596794504        9.8106019325
  O         5.8450649235        0.8531047529        9.3535977724
  O         2.8157784586        6.3866948176       12.3246990363
  O         1.6452969465        1.1807667283        9.2875115829
  O         2.3345581539        1.9509983034       14.4178568761
 Si         3.9283578314        1.8217392250       14.3907998315
 Si         2.2606134982        0.6736413299        7.8824235850
  O         4.3588385846        0.5493494856       13.5054018727
  O         1.0885642510        4.8380956614        8.7315904336
 Si         4.2349169837        6.9088932192       12.8448309084
 Si         5.2167771933        4.5731395442       14.2733405909
  O         3.2709169201        3.5042449614        8.1204097649
  O         7.1673955470        2.6444919412       10.7468331926
  O         6.6328091000        0.4720033702       12.2415732374
  O         4.5150925605        3.2048127621       13.8000960635
  O         6.9247132079        2.6467464802        7.9794023254
  O         2.1771070559        7.3066547351        8.3350556222
  O         6.6724697577        4.2017419097       14.8042703473
  O         0.3842026982        5.5327794915       12.7071632637
  O         0.0773326879        3.1405402774       13.7165521436
  O         0.1511385948        0.6212123894       14.4053249933
  O         3.9808657018        7.6204322986       14.2738209905
  O        14.8151531727        2.5691643881       10.2908173315
 Si         7.6706347313        1.6965191142       11.9400900014
  O         8.0253548797        2.5741971308       13.2640123883
 Si        14.2655599927        4.4753164561       13.2516015394
 Si        13.8892614094        2.1900349703        9.0186360896
  O         9.0450336195        1.1597080838       11.3083990525
 Si        10.5355174605        0.9541898424       11.8479022163
  O        13.1725292345        4.0420429918       12.1334331912
  O        11.1446073000        2.3389318144       12.4652453986
  O        10.8390400101        4.1321495398       10.5826064345
 Si        11.5635656032        3.8541687274       12.0109335037
 Si        11.3798442826        4.0597516336        9.0664422149
  O        11.0633127662        5.0500754660       12.9336277438
 Si        10.2617759355        5.8377617889       14.0528682225
  O        13.4812606762        0.6021427790        8.9705210678
  O        12.5316969637        2.9717625287        9.1977214447
  O        11.9204866450        5.5181282152        8.6546194766
 Si         8.1180670067        3.5826992618       14.5317777436
  O         9.0454417161        4.8785072074       14.4243330749
  O        13.5640007999        5.2297792602       14.4908705999
  O        10.3689146848        3.5082585153        7.9408565049
  O        11.4501040268        0.4734538228       10.6160040117
  O         9.6614955965        7.1833019342       13.4034867620
 Si        12.8713542986        6.4530975217        7.7650094749
  O        14.5804031883        2.8764099619        7.7125507425
  O         3.6524134622       14.9682161409        8.3445599319
  O         4.3611475390       14.6539354127       11.0682980096
 Si         5.2152560223       14.6503822923       12.4564714016
 Si         4.7398443779       14.6602561726        9.4953336094
  O         4.9043247367        8.0225081822       11.9188781133
  O         1.0077174753       12.0714338294        8.4036165875
 Si         3.1330961531        8.5021753189        7.8848869274
  O         5.9981270785       10.8323374956        8.4955137474
  O         3.2698748866       11.7539673863       12.1608456637
 Si         6.1417277368        9.0522942916       11.8359010471
  O         5.2247250959       13.1710956497        9.1815530072
  O         6.5561580247        9.0513764487       10.2713418914
 Si         4.6680010676       11.6188188612       13.0044372071
 Si         1.7673789338       11.9321755297       12.7425540563
  O         5.6826363955       10.5213234381       12.3790707566
 Si         5.8920332868        9.2703326687        8.8199856738
  O         4.3677285485        8.7299863743        8.8868810945
  O         5.3660692873       13.1050736790       12.9954990693
  O         0.9402371251       13.0956484365       11.9959267724
  O         1.4733645631       10.0558467133       10.2620237368
 Si         1.1506258345       10.4868246932        8.7194487996
  O         0.7903408711       10.6503117225       12.6197637324
  O         0.9487616253        8.1993831429       12.4050251537
  O         1.9452622293       12.2522722529       14.3254602778
 Si         5.9127619465       12.3407911792        7.9881013040
  O         2.3310578245        9.8989423277        7.8051435096
  O         4.2056460908       11.0727210733       14.4898014096
 Si         0.5725895760        9.4963241227       11.5182066986
  O         7.3763116171        8.4951954928       12.7063429715
  O         7.3920273530       13.0112209928        7.8748061870
  O         6.5531110328        8.5051353529        7.5519749447
  O        14.0228088466       13.3299449586       13.7399401303
  O        13.7888904903       14.4843510679       11.3110163287
  O        12.2342552347       13.1099586382        9.6771306361
 Si        14.2954671576       13.2035181514       12.1495058964
  O        12.0766141202       10.3509320275       13.5683861546
  O         8.2531494119       13.9500007750       14.5653859064
 Si         9.7737260175       13.7336390701       14.0283593457
  O        12.4722700791       10.4431646688        9.4325726688
 Si        12.2698976221       11.6692181597       10.4879627085
  O        14.7332367771        9.7470968754        8.3391939607
  O        10.0622805637       12.2277615583       13.5663700526
 Si        12.7316315814       14.6275452840       10.0855501594
  O        13.1014638967        7.8013271628        8.6612141730
  O        10.9833827464       11.2229747193       11.3893196498
  O        10.3667534898       14.7377597419       12.9289032237
  O        13.0154302825        7.9272953307       14.4329883720
 Si        10.6515569282       10.8558342834       12.9520454750
 Si        13.5492646126        9.2221902903        9.3011024563
  O         9.5201730924        9.7486541298       13.3262454030
 Si         8.6594807255        8.4118019879       13.6806608321
  O        13.5054772151       11.9228756214       11.5291187395
 Si        12.8183064174        9.5117680263       14.7433230866
  O        14.1124500676        9.1157136732       10.8318339627
  O        10.5774158765       14.0992531749       15.3365238067
