216
14.897 14.897 14.897
O       9.823951570400000     14.079310634500004      4.048934171700008
Si     10.316976609900014      0.644830102799992      0.624094767600010
O      10.385119888299997      0.909498107699993      2.226534084999999
Si      9.332833223199998      0.594072666999985      3.427344947300014
O       9.329425177999989     14.251266131599994      0.400093774200016
O       9.248581143099990      1.762821026899991      4.553582824900001
O       7.818530549399997      0.439909535399992      2.881856870100000
Si      8.034642166800005      2.082261147299989     14.440335964900012
O       9.569662045299999      1.923920241199985     14.893212175000004
O      11.762002076000005      0.585345280699996     14.794291148200006
Si      9.593300597500004     13.516882856000002      5.544303842100009
Si      8.557535067100009     13.040360056699981     14.517764178600018
O      12.895161765000008      4.491359780499972      2.070731685300000
O      13.874275222900001      3.746842440599992      5.953358147600014
Si     12.343336465899998      4.226697997699995      5.807629537400002
Si     13.137981864700009      0.787729740899986     13.941216562000012
Si      9.661238584700008      2.772132346799992      5.755640841500012
O       7.752681253799990      3.629629514999990     14.238650675000017
O      11.199288271600008      3.164774914499979      5.452093697400008
Si      7.151950987899999      4.687888165199979      5.987721887500005
O       7.995159777900001     13.516408554099986      5.709771374200004
O      14.360932465600005      0.531067855799991      0.070396482200001
O       7.006513975699998     12.681689384699990     14.819923549400016
O       7.924850181899997      4.579337985699978      2.638330234300002
O       8.663772517100004      4.064457457199992      5.862230959900009
O       7.013544956000005      1.504053615599983      0.643125405200021
O      14.467684505400005      1.337254768299999      5.766143762800013
Si     14.387228548300000      3.917560550099983      2.222645212400005
O      14.456599774600003      3.008286486599985      3.559543146500005
O      14.626197515200010      2.922225493499976      0.996526468300007
Si      6.583740112600011      1.189213081299991      2.160219465200010
Si     14.843506237300003      2.779728826399989      5.107954548299997
O       6.257508704100004      2.588177964499998      2.895417134700021
Si      6.429072379200000      4.176392922399979      3.057786867000011
O       1.507379053599993      3.170184169999986      5.211954600700010
O       0.877739835900006      0.931330628799985      2.308562159300013
Si      0.470219368199998      1.514178023299983      0.848507244600004
O       1.790924085000003      1.755174508299998     14.893376681300001
Si      1.452083561199990     14.375448280300006      2.685769752300007
Si      4.192789660400005     14.473276406700004      1.138407821800011
O       5.266459676400003      0.250525507099991      2.152771404899996
O       2.730986807700009     14.182933887699999      1.737705961600009
O       4.112173266700007      0.612465111899991     14.794161637300011
O       1.965277197700000     14.092412913699990      4.198342187200003
Si      2.785409166099998      4.157776298099998      5.207441809100003
O       4.616187118599998     13.007212725799999      0.652248065900014
O       0.220471528600006     13.345192315499986      2.481810231699997
Si      3.175057154300013      1.724708009599999     14.105566549600002
O       3.800780432999995      3.227843909899994     14.150195336600017
O       6.341813188099997      4.631291651299975      4.599294072900001
O       4.014563136500001      3.338711843099997      5.796986045000010
Si      3.094509144800004      4.657900416899968     13.798451141400019
O       3.287913960200021      4.733844363199984      3.799288500300023
Si      2.270954066400004     12.597995153999989      4.772005672800006
Si      6.805952286900008     12.559789981599991      6.190382676200009
O      13.727461664200002     12.434773513499987      4.738078223000006
O      12.305102260499995      5.228584428799993      4.553056178600010
Si      8.008270351500002      5.201011753799995     14.205360417100014
O       9.743976648999999      9.457580140499998     13.819973009600020
O       9.995425636500004     12.024325949299975      5.958448161100005
O      10.457663539999992      5.054448978699979      2.561578969000003
Si     11.959632061600001      5.410429450299993      2.985466741200003
O       8.746193526500004      5.802638415899999      0.587998660900024
Si      9.732385326000003      8.517945367399982      5.563971586700006
Si      9.024684288299996      5.645316730100004      2.145975694400015
O      11.480154752800010     10.442048517299995      0.894512281000008
O       8.986861571100004      7.133005284199982      2.733209359100001
O      12.050635510400005      9.454813804499995      3.223179650300005
Si     12.196613039600008      8.045977144099993      3.986235190800011
Si      8.465640920699993      8.655015771399999      2.782659045499996
O       9.099214836700000      9.539233834999989      1.565311177100015
O       8.834800183200006      9.116214886999995      4.315283173300017
Si      9.941375529900002     10.251852558199985      0.352502360500015
Si     12.721276804099995     10.082152288299978      1.890280667700015
O      12.306302689300008      6.967981870299975      2.792356415499990
O      10.902990857800013      7.639350623699990      4.873416516500019
O      13.538961126400004      8.133230988799998      4.882973557300010
O       9.405374643600000     11.733716222399984     14.890457968000009
O      13.708556850100006     11.266869621399980      2.402730570600024
O      13.713313079500010      9.049400465799998      1.157165583700014
O      13.885190017600001      7.803522650499985     13.799957087000006
O       5.274536827499989      4.982239839499977      2.235274640400013
O       0.549129010599998      5.142442788699996      2.157744842800010
O       0.719273770799999      9.691455480299997     14.297022130600013
O       4.849750935100004      9.794643829800002      3.649125733300003
O       4.612143816299995      8.629505425399980      1.277964793100008
O       6.578366081499996      5.819570662999990     13.909899343800006
O       2.459957858700004      5.477110038799994      6.028221614100008
O       4.275826101099997     10.211205129899991      6.199349358200003
Si     14.618626657500005     12.120742123399992      3.423423279100009
O       6.176924366499993     11.608978476599990      5.044062600600014
O       5.509727135200001      8.122568173099999     13.726240541800021
O       6.875253876200001      8.625598376100001      2.570296187500007
O       4.785981980500009      7.186839936099980      3.479168418400002
O       3.695380630699995     12.014591904599978      4.308394544500015
O       2.865240482300002      6.478036755199978      2.056495182100011
O       1.127011175099997     11.608559527099985      4.132221834700012
Si      4.058247677500010      5.843765826999999      2.917217523500013
O       3.200595694900016      9.113836689699991     13.979331738100001
Si      4.667862124700000      9.139765773300008     14.646972111800011
O       2.130428075800004      5.147071643099994      0.076532078900015
Si      5.503986299100002     12.197365568099979     14.485002807000011
Si      1.543391604400013      6.049231233700006      1.252894409500016
O       0.801075671100004      7.379645684199990      0.740609930500014
Si      5.279906681599988      8.550625806399996      2.745192982600012
O       5.352730352100003     10.602181515099989     14.649305228900017
Si     14.745103426699998      8.489837977099985      0.070063684199997
Si      4.748116544200005     10.892381642499998      4.800309821100014
Si     13.701145856000000      2.655997614799994     11.633112484000005
Si     10.744139211199998      0.752348275999986      7.528654665800001
Si     10.276341636200010     14.139809546599995     10.270044036200012
Si     13.158955147400007     14.685325127799995     11.151656059500006
O      11.799160329699999     13.931663226199987     10.752312754600016
O      13.206475839600003      1.368882836699995     10.760363767600008
O      10.325381290300001      0.103026937799998      8.922814831500013
O      12.896601698800010      3.980049090299993     11.164844704300020
O       9.411448574899985      0.182563004899991     11.251345604100003
Si      8.095929683500007     14.878719862899992     12.149751463400008
O      13.287851063000009     14.582895508000000     12.758536104000008
O      12.312113957099999      1.196759846799986      7.450651814700008
Si     13.786731578900003      0.614498204299994      7.060374598600012
O       9.747126128400000      1.993313829799996      7.182988683300014
O       8.419088049100004     13.521454223700005     12.977387371600006
O       7.837782571100004      1.258572546099987     13.081354444900011
O      13.301977731200012      2.235083043499992     13.170398695999999
O      13.472692967100002     13.972547617499995      6.767424196400004
O      10.477980401599996     14.498538978099996      6.446299412900007
O       9.575155834300000     12.680695894799989     10.173348948100006
O      14.372573547500002     13.999444053599980     10.340326387100010
O      12.065987392100004      4.824391224799989      7.272830911700011
O       6.764283339099999     14.821776850899994     11.244883790699998
O      14.865949482200003      0.686401471399999      8.275766031100003
O       5.360866694200005      1.336068152599986      6.536464598700015
O       0.406466843400007      2.839380502599979     11.398790710899998
O       3.611327749599998     14.668199046400000      7.689860429000014
Si      0.641115647800002     14.661497244499991      9.431512639900010
O       1.540961740400003     13.505167922100000      8.767776009200013
O       5.672117970000005      2.280515392299976     10.512036310500008
Si      5.702230218899991      0.672967496799989     10.306741533600007
O       4.210054324799986      0.172255529499990     10.588691623700011
O       6.017835340800008      0.263927618899982      8.780011715200011
O       2.702059807500012     13.596920948900003     11.985779147399999
Si      2.840793659400020      0.192526203199987     11.405902506700013
O       1.626929075299997      0.588651018899994     10.419148136200000
Si      5.185874589100002      0.011861284899995      7.423710812600009
O       4.350567693999992      2.998238828900001      8.375000308200004
Si      4.669378640200008      3.414791622899990      9.902545330200009
Si      1.726388057100006      3.794389882699988     11.211575364000012
O       3.184794624000012      3.342259574100000     10.590140015200003
O       2.877583187100003      1.276934399499993     12.585456038700009
Si      2.796323595100001     13.282775806299998      7.797206451100004
Si      5.020998663500001      2.860293548400003      6.926393767400009
O       6.359146953399999      3.744112414099997      7.020105460500007
O       2.039870561899998      4.323633403199999     12.664946901200015
O       5.679845964700003     13.581541260199998      6.693180843500006
O       2.291803870599998     12.767384905800000      6.364074907300009
O       5.517971170800005      4.807325940999979     10.000244988200002
Si     13.614304036100000     12.439089732999996      6.356003932899999
O      10.651078737100022      5.329453937399998     11.328728179400002
Si     12.202350401600013      5.422347589999997     10.985267171600004
O       8.905461575099997      7.717028722400002      6.714431614300008
O      12.141867372100000      6.053978479899981      9.506935234000011
O       9.004317549800007      5.646248089199998     13.081033436000006
Si     10.868857678300005     11.075233467799986      6.934826957299999
O      12.952902335900005      7.218460939299989      7.256933664900009
O       8.100864821400007      5.638364402299997     10.678080144600006
Si     12.916513938600012      5.888961681299998      8.134936891500002
O      10.638717894399994     11.034688917599979      8.534553993400014
Si      9.699477341400003     11.088029045199985      9.856262303400005
O       8.328496377400000     10.361178323099999      9.425181201000004
O      11.751784172500008      8.690271192700006     12.511422314899999
O      10.153673653199995     10.285003493499996     11.195841880000014
O       9.476900580299990      7.776726603000000     11.660622661299996
Si     10.224624791699997      9.080422801499996     12.297542850299994
Si      9.307534656699994      6.151418528299993     11.623660775499999
Si     13.173732149900010      7.999966590699999     12.376701206399993
O      13.050699181699997      6.486562288899993     11.835730868900001
O      13.966805868999998      9.032801129499983     11.416411086800014
Si      7.448500000000000      7.448500000000000      7.448500000000000
O      12.378552729200006     11.530192829899992      6.770050751900012
Si     14.057290459700008      7.993804768599997      6.395238301400006
O       7.337862357500002     11.597154797499989      7.364022015700012
Si      7.085061215800002     10.395666040099989      8.409425644900013
O       7.005634842100000      6.228072517100001      6.458029235800004
O      14.453882097400003      5.563764591400004      8.524999342300006
O      10.565012928600005      9.623310589999997      6.365794492800010
O      14.209350422300002      9.369148224700007      7.189887639100013
O       6.931314643200008      6.883228279500002      8.902647397900006
Si      1.967829907300000      9.879995001499978     13.281296201200007
O       1.210212224500004      5.070476340099983     10.421416932100005
O       6.910071265900004      8.990953240999993      7.595690559600006
O       3.125886854200004      7.950951948799988      6.694368956700010
O       2.051516197999997      6.312763665299983      8.357062840999998
O       0.574870039100005      7.229499542699979      6.360394099400010
O       4.923224628300004     12.514988920999983     12.992353616200013
O       5.842915289600000     10.785116837199986      9.349027857600007
Si      4.256224642999999     10.993175390799987      9.414416155200016
Si      5.498530494599989      6.645696366399976     13.078752703900001
Si      6.587582880699993      6.019320585099994     10.241672047200009
Si      2.045434140200004      6.767428038199992      6.828077746600013
Si      3.248311278600009      9.471131511099998      7.195179069600018
O       0.472409395500006     10.190153491399982      9.430773124900007
O       0.626894323000002      7.613356845700000      9.998922000200000
Si      3.500490602799995     12.227611471299980     12.245212423300007
O       5.922686227499994      6.805305791599996     11.510226984400010
O       3.778261581800002     12.183267390999987      8.440778754500013
O       1.786320969599998     10.119767367999987      7.115182694400014
O       3.687658561900000      9.616153106399999      8.756099824099998
O      14.796888327400007     11.845217170499986      7.281562240900008
O       4.116956315900004      5.815168725699991     13.314902000800011
Si      0.819126391900005      6.153190853699996      9.353203605000012
Si      0.478653341500003      9.084109597600005     10.636886363900018
Si      0.365086162000001     10.400981467899989      7.811457480700016
O       1.619853378299996      9.367352101900000     11.764608230100002
O       2.456406194900000     11.409813490899978     13.163175101200018
O       3.787622588399988     11.352815672699990     10.910286617400011
