216
15.144 15.144 15.144
 Si         2.7133196962        6.0487126024        2.2899388280
 Si         5.6130090571        5.0639480583        2.1398444183
  O         5.5320155096        1.5730388814        2.9982257766
 Si         4.7107271353        2.1185543282        1.7244103450
  O         4.8884429878        3.6972448870        1.7401369802
  O         2.1255227082        1.4187169870        6.1371141990
  O         1.9810080596        5.1310127896        3.3910080542
  O         3.2277500663        1.5589252897        1.9645662284
  O         4.3033837766        5.9123809154        2.5950916618
 Si         6.7589923588        0.7562487463        3.6310012689
  O         1.3397171964        4.1028258393        5.6039423785
  O         1.8230915465        5.6073195064        0.9578680226
  O         6.1456948186        5.8371308879        0.8589686898
 Si         0.7163283452        4.8491074202        4.3221302915
  O         6.8611684924        2.5888802005        7.0141479021
 Si         0.3755475397        6.2547757422        0.5375408209
  O         0.9672013167        0.3819603819        1.5165988379
 Si         0.9979708349        4.2367410246        7.1668501758
  O         6.9281033756        4.7969486863        3.0722781520
 Si         2.3800026721        0.2244740735        2.2607828597
  O         1.8790194926        0.2297746377        3.7921253080
  O         0.0810139195        6.2926552763        4.6538761538
  O         5.8409645672        0.1612970660        6.7057840096
  O         5.1193634628        1.7288229999        0.2236500756
 Si         2.0133957060        7.1714042892        7.6028699124
 Si         2.2581447481        0.0535641588        5.3237450718
  O         2.5204721114        7.6607320502        2.3635444971
  O         7.7305135580        0.4815841449        2.4149740921
  O         7.5726431049        1.5761214623        4.7349545695
  O        14.5104253823        4.1803883689        7.2561972282
  O        14.6739865424        3.9480627970        3.7101737064
  O         8.2703670289        4.0136476944        5.2065328770
  O         8.8183118197        6.2586194906        4.0984822878
 Si         8.0511125365        2.5777782589        5.8998801915
  O        13.8113335120        2.2909521876        5.5984097531
 Si        13.6666676615        2.7151799576        4.0200478162
  O        12.1382875215        3.1520064886        3.6240730179
  O         9.6277179039        4.0166022248        2.9206103857
 Si        11.0684195587        3.3971037370        2.4006212496
 Si         8.4162287618        4.7435593131        3.7730413873
  O        10.8108394155        1.9748658147        1.6496652349
  O        11.7529004348        4.4156686892        1.3385128711
  O        14.1230288958        1.5012633411        3.0793375919
  O         9.4622376014        2.1249309800        6.5382273708
 Si        10.8714079899        0.5283630459        0.9165766473
 Si        12.5566151989        5.6585047773        0.6869277715
 Si        13.5777684985        2.8469382674        7.1220704501
  O        12.4448701905        6.9015411204        1.7271385150
  O        14.1602680208        5.3575264239        0.5579808017
 Si        14.6255742587        0.2920972644        2.1554975361
  O        11.9532240091        2.9171502660        7.1819581075
  O        11.5171214442        0.4037170995        6.4678038084
 Si        10.8619523622        1.6997507066        7.2067419452
  O         8.3655089617        7.0146258517        0.2343284433
  O        13.8013004708        0.3216150063        0.7948337489
  O         9.3867977464       -0.0068640563        0.5569623546
  O         0.0965934075        7.5123229189        1.5215899421
  O         1.4912890138        7.8313446274        6.2082947001
  O         6.2212523574       14.5131828767        4.2696512365
 Si         0.3309337581        7.8278257186        5.0542028207
  O         3.7840449682       14.7567617047        5.2782808616
 Si         3.3950923423       13.2370533288        0.4518942688
 Si         5.2848478619       14.3167454400        5.5641155517
  O         2.5451445877       11.8184785266        6.3257684045
  O         3.1542579820       13.9673586636        1.9005443703
  O         1.3364134263       14.1174654990        6.0845474301
  O         1.2588333869        9.8585252731        1.3407071896
 Si         1.1456020186        8.5152971882        2.2417724100
  O         5.1287060702       12.7763284618        5.9963903234
 Si         1.0972646965       12.5204079705        6.0325173746
 Si         0.9948607277       11.3292897199        0.6902258777
  O         0.7121965332        8.7591749064        3.7834799295
  O         0.5530372468       12.2996834086        1.8838444669
 Si         3.9832744669       12.2070479548        7.0068181216
  O         0.6356312999       12.2250802460        4.5167047955
  O         7.0909069979        9.7790000329        7.0906008315
  O         2.3810024534       11.9920355210        0.1622760858
  O         7.2627742586       13.5706245465        0.8697137963
  O         4.9123056400       12.6910036890        0.2265661680
  O         9.3091840963        8.5174427211        7.7248509528
  O         8.4422678341        9.6223410749        0.1473447911
  O        14.4327154957       14.1161565696        3.0816259977
  O        11.1367566903       11.9132600215        2.6897151353
  O        12.9370258634       10.5159067775        6.4922774887
 Si        10.8277815348       13.4789126902        2.9682862355
  O        11.4921014788       14.5648745321        1.9538727288
  O        12.7763363701       11.4408405012        0.8019272360
 Si        11.5474179951        8.1418887985        2.2091760433
 Si         8.5819177735        9.4160773365        6.5814334405
 Si        14.8892645950       12.5789288031        3.2322905097
  O         8.3653473179        8.3581057924        2.5247248803
  O        15.0759874362       12.0612388389        7.0817664640
  O        13.6305925582       11.5917716012        3.3098978312
  O        14.0357792940        8.3592253952        5.5257774722
 Si        12.4675294235       11.0811086670        2.3257893872
  O        12.7738482826       13.1721008628        6.6238391687
 Si        13.1660360239        8.9234208490        6.7351865130
  O         9.3892387498       10.8145259873        6.4663646117
 Si        13.4673457919       11.8498853545        7.2713257767
  O        10.1737467086       13.3237439290        6.5472115694
 Si         9.5781937022       12.1208705584        7.3920887479
 Si         8.3895588808       14.4255932451        1.6053921028
  O         8.6080628787        8.6744565377        5.1437867126
  O        12.3873483891        9.4855935007        2.4491147364
  O        10.7117685743        7.8931024077        3.5742064922
 Si         9.1146013732        7.8174292378        3.8718643609
  O        11.7685494268        8.1174716730        6.9513963327
  O        11.4295780847       13.8840524874        4.4083666348
 Si        11.5163924612       13.9972746093        6.0083362888
 Si         8.8859091726        8.3438131580        0.9825424859
  O         9.2333674547       13.5677049004        2.6914303414
  O        10.4877665672        8.3596721945        1.0179465808
 Si         5.3888073144        1.7686177882       13.7833282248
 Si         6.8133146130        6.3035461586       10.5073083076
  O         5.6809640822        3.2267041193       13.1005307434
  O         4.1736551274        0.9512426413       13.0172712874
  O         5.8358198349        6.3929341214        9.2172000602
  O         6.8568636772        1.0864120100       13.7071991555
  O         6.0663473802        1.1120054317        9.0685944630
 Si         6.9160792043        4.1735527002       12.6182758185
  O         6.5372775537        4.8849592985       11.2167783419
  O         1.5005949385        0.7960720472       12.9341713097
  O         0.5502212586        6.7893806637       14.1985491000
 Si         0.9875762434        7.2961533308       12.7713829998
  O         2.3678647142        0.5539676443        8.5906949562
 Si         6.9740462099        6.4416608341       14.7991639538
  O         7.2500996026        5.2925198000       13.7253659234
  O         0.4101520902        6.1552807730       11.7507959160
  O         1.7451938846        3.0802836847        8.0279432383
  O         3.6248251697        7.2639217476        7.8172096247
  O         2.5964564781        7.4159891740       12.6208715759
  O         6.1492668147        7.6466615541       14.1232756519
 Si         2.6496098373        1.8084560795        7.6066450008
  O         4.2418141237        2.1330147086        7.5000688511
  O         1.5631090629        5.6341096145        7.6734288069
 Si         5.7499105112        1.5365630583        7.5511047896
 Si        15.1950549364        0.5374427887       12.2207963552
  O        14.9859578760        1.6441683917       11.0444383393
  O         8.3714851560        6.5476148624       10.1793748181
  O         8.3413710053        3.4663990501       12.3814996875
  O        14.0448568895        2.0719274281        8.5006173914
  O        12.9987845490        5.6751178681       11.9907580670
 Si         9.9164586657        6.1671888574       10.4279567266
  O        10.0901758868        2.0620949885       11.2780915628
  O        10.8926379760        4.1580527713       12.7808691209
 Si         9.8062260063        3.5594881171       11.7286917163
 Si        11.6015766719        5.6220405412       12.7994333426
 Si        14.2276096345        5.6415982470       10.9508624418
 Si        11.0015069109        1.2141852567       10.2814137334
  O         9.9383138814        4.5392036659       10.4206451273
 Si        13.9399051550        2.4563264196       10.0986611644
  O        12.4879473348        1.8222955775       10.4951795800
  O        14.1954751757        4.0939773138       10.3365964251
  O        10.5693787003        1.3439070714        8.7436129909
  O        14.1222175435        6.8588901143        9.8504572299
  O        11.9134774221        5.9941375136       14.3541318922
  O        10.5643539192        6.5510592700       11.9025664179
  O        10.7331030898        6.8706910756        9.2165710246
  O        13.9648170170        0.6339310211       13.2678994257
  O        11.6888267651        0.4729023591       14.6633249559
 Si         4.6762431083        7.5193561412        9.0348666737
  O         6.3916484834       15.3001860255       11.3877915246
  O         6.4704747760        7.4908410091       11.5198212547
 Si         2.8722305939       15.0927156676       13.1759828154
  O         3.8583641833        7.5648406515       10.4106980283
  O         1.2591305220        7.8832400048        8.8337575684
 Si         5.7087717228       14.9936301625        9.9993324629
 Si         7.1303568023       14.9739215383       12.7623812790
 Si         6.4412145657       12.8666509797       14.8247331785
  O         3.6301629349       13.4102399452        8.0230296745
 Si         6.0595914478       10.2284613532        8.2611112833
  O         3.0717970927       14.5075946692       14.6577669602
  O         4.1247263361       14.7578007489       10.1767219988
  O         5.4527583476        8.9108362938        8.9147856908
 Si         3.4404906543        8.4352446485       11.6840966500
 Si         6.1918538822        8.4719802595       12.7399016248
  O         4.7157067468        9.0709395366       12.4594200597
  O         2.5999666580       13.7213728005       12.3007552353
  O         1.8199174933       13.4028513880        9.8716537234
 Si         2.9528601653       14.3039041328        9.1643864268
 Si         1.3475067591       13.1428983085       11.4067927750
  O         2.4679378384        9.6324179093       11.1995967141
  O         6.8544791845       11.1063541546        9.3921751256
  O         6.3139642592       13.6399942609        9.3935810903
  O         6.3844102875       13.7371563246       13.4739709538
  O         0.8726991339       11.5912593351       11.6695511618
 Si         0.9055068303        9.9566549801       11.4598100805
  O         0.4715324183        8.8537008213       12.6100519615
  O         7.3923994630        9.5404285542       12.8409342678
  O         0.0898875885       14.1386964764       11.6795372565
  O         7.3183402745       11.6082735047       14.3559515174
  O         4.7286974637       10.9791054536        7.7199527450
 Si         7.5197093983       12.5937931310        9.4036557242
  O        -0.0818530238        9.4809340205       10.2662924285
  O        14.0452344029        8.7486278568        8.0571066392
 Si        13.2129500899       15.0726443892       14.5132655171
 Si        14.8847111848        8.1998823528        9.2905565272
 Si        13.4041453970       11.8809091233       14.5500351461
 Si        11.6356254626       10.9525703244        9.4509671634
  O        13.0155426842       11.5932868153        8.8322587378
  O         8.2021661465       12.7001479662        7.9583920953
  O        10.5666758460       13.0069370380       12.4542627703
  O        11.4391473315       11.0438853335       11.0426849927
 Si        11.0288476377       11.4671510918       12.5520136617
 Si         9.6206120014       13.8807136493       11.4868081132
  O        12.3942750423       11.2762736566       13.4165437275
 Si         8.2664009419       10.3982262827       13.8936090622
  O        10.4804944990       11.7561750850        8.6726300482
  O         8.6798975737       14.7465659464       12.4641089071
  O        10.6470724105       14.8166619887       10.6493380327
  O        13.3409867455       13.4759166714       14.3475530318
  O        14.9748088046       11.3632541799       14.6673363806
  O         9.7055591591       10.7233613323       13.1852148451
  O        11.4359944966        9.3841191768        9.1454793595
  O         8.6045428329       12.9433289787       10.5747474776
 Si        10.7992499590        8.1882736319        8.2649883607
