216
14.832 14.832 14.832
Si     14.574096700300002      3.296504611700009     10.280747078600022
Si     12.014625264900003      2.182447870100011      9.070765612999999
O      13.477072122900006      2.920535167000006      9.136564159100018
O      14.398149317499998      4.826285843500011     10.772146400500002
O      11.185153761800011      1.442352787299997      7.888263578400007
O      14.475200643200001      2.363023469400002     11.598676888800012
O      10.361740443000016      5.985299991199994      9.291518536900011
O       9.134851316500008      6.312591259300002     11.530794936700007
Si      9.354944720700011      6.992710183899998     10.034567298200006
Si      0.139438619999999      1.037418389699999     12.384950885899999
Si     10.064897363200002      4.614194173000010      8.515888282999995
O      11.036653721700008      3.497454580699996      9.202090198500013
O      10.190717928900002      4.994625599200011      6.908729567999991
Si      9.770798279199994      1.103763864199985      7.151538865599996
O      12.344801362200011      0.882357684000003     10.037551572500002
Si      0.242193663300001      6.081531340899994     11.522619573099997
O       0.236263978299999      6.437657882800013      6.404582852599998
Si      0.613937512399996      4.916096623800009      6.018487307500008
O      14.156011579400005      7.374374908900011     11.274933551199997
O       8.555630079500014      4.108454580400009      8.892537044700020
Si      9.511019422900013      5.892225819499997      5.688696795900000
O       9.767313917399999      1.790942857000001     12.825016015100006
O       9.997353074300015      1.542287443799995      5.606765925599996
O       8.638035271500012      7.048436949800012      6.417667469100010
O       8.478183036000006      1.866642213700005      7.733085586100000
Si      8.371854562100006      1.784631471900002     11.967175633400014
O       8.464781723400000      1.777970625699993     10.339094566599998
O       1.203878862399997      3.111323262500004      9.621295588200002
O       1.216519970500005      3.846390530799994      7.088080726800012
O       8.050345814200002      7.137365193899993      8.966275801200011
O       1.710940200999991      6.398777865900001     10.944460414800000
Si      2.080942480799999      3.809350582400015      8.463922738900003
O       3.530794256400002      3.108632439500001      8.621597692400012
Si      7.908374683800000      2.626165065900004      9.032333564500011
O       2.282401724399993      5.392411395400000      8.632544122100011
O       4.160270579799992      5.736866522800010     10.385685412400003
Si      4.841125626600000      2.146861588399995      8.552573122000013
O       6.291624904000003      2.769558718500010      8.961558587800013
O       4.834735703700008      1.700563989099988      7.006365933599998
Si      2.804473322799991      6.372254205499999      9.767936859099992
Si      4.504046590500006      5.461235893300010     11.935470120600012
O       6.155616250200001      6.733395000000011      6.493155157500006
O       6.086698225799998      5.247458888100004     12.092812492300009
Si      7.416000000000000      7.416000000000000      7.416000000000000
O       7.640542948200018      3.175813587799997     12.179951931400012
O       4.674586583299998      0.888702993000000      9.526833723800001
O       2.374570323700015      0.880677456799993      6.334520578899994
O       4.085229522200001      6.767629075500004     12.743805780500004
O       1.725238204300005      0.942196011300002     12.108951688900007
O       3.767183981700010      4.161656735999998     12.588679447800004
O       7.472296317700014      0.543397721600005     12.514881476000001
O       3.025510137399992      7.783274213800000      9.056028654500011
Si      3.730961070700003      1.630348951699993      5.839358044000012
Si      0.285129038299995      8.035292184899991      6.173816896300006
O      14.067109722499991     14.649205380900009     11.832928789399995
Si     11.448527320600006     11.924483874099996      6.041736332600007
O      10.188662606699992      8.380086129399997     10.287720158100004
O      10.521008993799995     12.744861935599998     12.178301437300002
O       9.366282752499998     14.394349493899997      7.322585115800003
O      12.257736202600013     10.677584662199999      6.661253464200005
O      12.520096668099999      9.276064850400003     11.514250683600009
O      13.825272721699989      8.543019605599998      6.987621580499999
O      12.248928871800018      9.202432876599989      8.887682974200018
Si     11.453025606599999      9.401967986499995     10.277993477500013
Si     11.030025732199995     12.498111770100005     10.659691674000012
O      12.508673015799998     13.137271062500002     10.444605943500026
O      10.116718388500011     12.076302877099996      6.997906613600009
Si     13.389638993299995     14.495464581800007     10.373143981299998
O      10.106326254599992     13.160341015700009      9.521171303700015
Si     13.129735051399988      9.805744177299990      7.682983289000010
O      10.938094676200011     10.922595434300002     10.368335836000002
Si     14.110579427599996      8.946526216299995     11.599935972300015
Si      9.313542778899990     12.999579922800006      8.118669352900003
O      14.313821399500005     10.762266319599997      8.222236678799998
O      14.710582255899990     14.469967274100012      9.381203316900008
O       0.140390371499980      9.773421101800004     10.523603224799997
Si      0.660683382500011     10.686324026899998      9.317707744000007
O      12.417267638500013     13.247420695300010      6.008571038700003
O       0.051117105099991      9.278591580899999     12.996120586999997
O      14.758831181900002     14.559154162300004      5.741021890600007
Si      4.184084759800001      8.343892227200005     12.957661727200001
O       0.964451088599995     12.177895047500011      9.788951764999986
O       5.661109531999992     11.174798960800004      8.218842729300011
Si      1.248939737700002     13.602177450599994      9.097079161399998
O       6.883653823700006      8.937957858199995      7.561535953700005
Si      1.486442046499996     14.374948872000004      6.116770846500008
O       5.347727037700005     13.219856613500008      9.791706668200009
O       7.803596160900010     12.571304166400006      8.633806760500022
O       7.639650128700000      9.777337873699997     12.755335649700008
O       2.038755895700010     10.119134491800004      8.721030546600007
O       2.681663864500007     14.058326252199995      9.693435211400008
O       1.462504023400001     13.547601050200001      7.496466171100018
O       6.658074679399995     11.019893801399997     10.602600747100011
Si      4.205960546000001     14.329420240499998     10.165010132800001
Si      3.065616130099995      0.366334670100000     12.821812120900002
O       5.251361568100003      9.031625790399991     11.931168249100001
O       2.707496990599989      8.952190661100005     12.754690507100005
Si      6.405256600700003     12.045059312299999      9.340640982000011
O       4.096261490100001     14.549974441799991     11.761587613900005
O       1.715555193700000      8.523237692499993      6.754634960299996
Si      6.300723028500006     10.285221613399999     12.001335587200010
O       5.894926418500003     10.436141342200004      5.696429735100016
Si      2.744210206000009      8.910368439899985      7.936304867499999
O       4.179767383699989      9.277301525600006      7.316469539700005
Si      5.647859938000013      9.936769119100004      7.204763018000007
O      14.735680313000003      4.602022004700009      0.566603853300003
Si     13.561212805699993      3.821724990900014      1.346152183100008
O      13.653760449099996      2.267317430800002      1.064196950900002
O      13.739592802799987      3.835248657299998      2.944221710800006
Si      9.772816040500006      1.632815576400003      2.299751053600000
O      10.432869153900006      4.826534862199996      2.795399721000010
Si     13.044459337499998      4.313048624699995      4.303192101600008
O      12.180374193199997      4.503098660899991      0.809993079800003
Si     14.777425168899988      6.021454222700004     14.625382002400011
O      12.591530964900004      5.821996825300011      3.939731264300013
Si     11.191298959899992      6.180730337399993      3.226219448799997
Si     11.817207400999997      6.032818568799990      0.352988951000001
O      11.415254454599991      6.863783035399999      1.745103684200005
O      13.249233488000009      6.637854250900009     14.655352262000008
O       8.872883345200002      2.814843946300000      2.939575627300006
O      11.097358630700004      1.458499270100008      3.206964552500006
Si     13.421619897800001      1.045107144499992      0.085965441399994
O      10.111871998000007      1.865616344999992      0.727482103299996
O      12.160863280399997      1.444146151600007     13.982588101900014
Si     11.344411901600008      1.864486657600001      4.764924063099999
O      11.767014286999986      3.424920042400000      4.764928527000004
O      10.686407988300003      5.983588980399999     13.989299571899998
Si     10.570085128300008      1.239072527699992     14.131265566499998
O      10.357194444399990      6.728752850300002      4.532076686200003
Si      8.951011761000018      4.387993363599998      3.211655581400001
O      14.726384200700009      0.968709877200009     13.976498319900008
O       8.703316924599994      4.817212647100006      4.763628604400002
O      12.508725153600006      1.046212807000005      5.513664832500006
O      14.080407940699995      4.250234582300007      5.507093686500001
O       8.775740472900017      7.632752517199991     13.661078902099998
Si      9.252388166200001      6.212506454300005     13.180654251500002
O       8.878369778500000      0.306710243400010      2.459816298100015
O       0.384238439900001      5.810856165200005     13.094174391899999
O       1.127853355399996      6.893090709400000      0.481108081500009
O       8.146623826200017      5.137498183100004     13.726990890500012
O       4.337615812599999      5.243014633600003      5.329835660700017
Si      4.239520590199998      3.192093583500007     13.811500311600000
O       7.964204899800013      5.162320889699995      2.208545768800005
Si      3.139481277599995      4.455007632200003      4.579365705900001
Si      4.093643907200001      3.585277018700014      1.914758799000005
O       3.199415388299994      4.419848490199993      2.962382437300003
O       5.580968345300008      4.170156903600007      2.122537633499999
Si      6.410656997600000      5.538835595100018      2.292776461299998
O       3.598972117099998      3.677774952900009      0.387011131000009
O       5.994995503300001      6.533967800600006      1.075318828099999
O       4.010091360199995      2.031285699499999      2.299615132600011
O       6.237320807200009      6.155122148599996      3.781917840300006
O       4.591449483899999      0.947982646900003      4.677223125400007
O       5.843022199100000      3.504405596300005     13.989968096000005
Si      4.723662503599998      0.836621608800000      3.083360632099998
O       1.702501166200003      5.087181751300009      4.850547588600009
Si      5.326554686699994      6.493783967099997      5.085647170099995
O       3.844539665900005      1.634881875600005     13.513916830900010
O       6.253545700300002      0.875510982300005      2.617162231200004
O       4.350669859100002      7.680596449699993      4.517251127700004
O       3.196861041200000      3.012118869200005      5.254122255300009
Si      6.937467795000000      4.287230028900014     13.065644188200004
O      10.359855675500015     14.492698590600009     14.159252984600002
O      13.171653654699993     14.548974960800003      0.982818909099999
O      11.182873069300005     11.578684832100004      4.464487292499999
O      13.004833913100002      9.931207673199999      3.458499447899995
O       0.153543180999999      8.693783997599999      4.695462194800009
O      13.082421628300002     14.380016011400008      3.680210845800000
Si     13.466520894899997     13.664463689700005      2.310635694300005
O      10.921672406500013     10.432720274500008      2.031599107200010
Si     11.926645811499995     11.080591480600003      3.100094129400008
O      12.598165644199987     12.309256337099995      2.290051473700000
O      10.365578403299992     12.082111129299996     14.815699838200004
Si      9.841754825000006     10.901215708600006      0.944795833200003
Si     14.541149106499992      9.459641805299995      3.347142295200003
O       9.458686544200006      9.766701577200006     14.729149666500000
O       0.199510613999994     13.328589625899996      2.479984555000017
O       0.042588006099992      8.451357724000001      2.138630438300004
Si      9.904616090799994     13.062872538500010     13.634799254000001
O       0.552733201700010     10.774253108800011      2.946359763800010
Si     13.221496459199990     14.462256806199987      5.270423716400000
O       8.544825989400000     11.265382467399998      1.802772969700000
O       8.278644558700000     13.124489036300005     13.569922449900002
O       5.569818024500006     11.354602941800003     12.926699572400000
Si      5.742075451600006      8.116441922200007      0.810655129500015
Si      1.417418284699986      8.240046962900006      1.321765368700005
O       2.524778130000003     13.970396765499990     13.752121109700012
O       7.093196856000006      8.859676593099994      0.389965623200003
O       5.242043327600012      8.688465203599993      2.210325251800003
O       1.794785778300005     11.343918819699997     13.176622873800001
Si      4.002833900999991      8.626036668999994      3.238084720499996
O       7.475737093000017      0.301519042399995      0.317414324300004
O       2.680063160400007      8.208027076899999      2.375429193400007
Si      8.207613979700003      9.034963662099990     14.077078507200008
Si      7.404417550000002      0.007644813099995      1.914117208600004
Si      7.233897526000002     14.359535530099992     13.754450299999995
Si      2.369599998299994     12.432780280299999     14.251477720300004
O       2.278745052399998     13.645036787900001      4.926503359000013
O       6.399124517800006     11.079484759600005      3.274695116200005
Si      5.362631059300007     12.180325703800001     14.271027363099996
Si      3.361329583599998     13.192699159700002      3.828813283900020
O       6.240752483100010     11.577014204699994      0.632620076900008
Si      1.521783494500004      9.767710850299988     13.492989939400001
O       3.995248341099990     10.101337055400002      3.867739179400003
O       7.059737854600003     13.339160890799997      2.289515729300005
Si      1.167715746099992     12.073781035000005      2.224163926700017
Si      7.053859002900007     11.775351639800007      2.002134150400002
Si      5.223956669699994     11.024283092600008      4.364241936900006
O       3.930665240500004     14.302026020800009      2.789337588400000
O       4.670682389499999      8.460143481099994     14.492918117900016
O       1.630614222899996      9.437416439500000      0.245264083000000
O       1.364026913100002     12.170656034399993      0.637330269999997
O       5.757246630600005     13.717515396200008     13.911342220900000
O       3.845564277399999     12.006473623400005     14.730139988300007
O       4.591823433500004     12.489825469099998      4.597936765800005
O       2.616432244599995     12.170746939600003      2.867824421000000
