216
14.924 14.924 14.924
 Si         0.7179946455        5.8881255910        2.6247903072
 Si         2.8390142339        6.2772527152        5.0156668824
  O         1.8222080631        5.8874508008        3.8073940492
 Si         6.8557201878        1.6635348380        1.1950562658
 Si         3.8673275886        1.2046293128        4.9396373414
  O         3.4845999288        2.5647300002        5.7212677105
  O         3.1398369940        5.0581513349        6.0551337279
  O         5.2313925823        1.3287350176        4.0621264013
  O         1.3938917904        6.4628473154        1.2567837192
  O         6.2208624275        5.7263610502        1.7451097595
 Si         5.1937151292        6.5732449590        0.8510732080
  O         2.6432612583        0.7389175229        3.9914210373
  O         4.2102486978        6.9732753398        4.4542380636
  O         6.6329955858        3.1606049607        1.7625490077
 Si         3.4159453669        3.6859107829        6.8903038522
  O         5.4790588422        1.0036529277        0.6684087056
 Si         1.1429793818        0.4316257033        3.4579990623
  O         0.4145569875        1.8339918780        3.1353129219
  O         7.2891155494        0.7474079706        2.4803382050
 Si         7.1957908102        4.5853068336        2.2932490738
  O         0.4974738652        2.4825866150        0.5971087528
  O         4.2294031207        0.0972660934        6.0498842636
 Si         6.4330917812        0.2583971987        3.7905406744
  O         4.2280377732        7.3002178004        1.9092441384
  O         2.0710693016        7.4390833539        5.7897275894
  O         0.2633218258        4.3676916865        2.4038941048
 Si         7.1872412196        7.2533671321        7.2699131780
  O         7.4011333005        4.7373673635        3.8976536140
  O         7.4678488312        6.2228880795        6.0574109034
 Si        14.7792840399        2.8671330878        2.0376207479
  O        11.7756503005        4.2436818495        6.8790114816
  O        14.2698223854        6.7254667362        2.8900379267
  O        11.3505296242        1.2175450004        2.9207354030
  O        10.9402486368        2.3254523440        5.2994490509
 Si         8.3976741353        5.4365715211        4.9838958295
  O         9.2904288938        4.3085686004        5.7199740355
 Si        10.4613531455        3.3973642038        6.3720258734
 Si        11.2504550060        0.9788014625        4.4936970092
 Si        11.7709921187        2.1062716600        1.6702482921
  O        13.1731105954        2.8267934552        1.9864343812
  O        11.8705668371        6.2951021626        5.3238918185
  O         9.4449935373        6.4739510843        4.2996839776
  O         8.6366127188        4.8172749337        1.6539216019
  O        10.5213055927        3.0587109893        1.4108681646
 Si         9.7916774516        4.2841725213        0.6988561847
 Si        10.8945482957        7.1750201631        4.3997750065
  O        11.9390592503        1.2403117007        0.3364164936
 Si        11.8397372309        5.8774466334        6.8739983029
  O        12.7602707498        7.2185259434        0.6804998354
  O        11.6326063801        7.2983852284        2.9804952797
  O        10.9352445790        5.3864491024        0.6572281607
  O        12.6898668042        0.4861096513        4.9741119304
  O        14.2651647858       -0.0048471010        6.9529363285
  O         7.4629103639        0.1643928625        5.0518736808
  O         0.2505900646       14.5854265246        4.5593693534
  O         2.3092700317       12.4506787300        6.9667325186
  O         3.2263619826       14.6722834109        0.6608665527
  O         1.1587301811       14.4264266255        2.1339461238
  O         1.7443827241       12.4507662006        0.4154508472
 Si         4.5239881536        8.0839281694        3.2942616360
 Si         6.4774840715       10.1086508671        6.7604167874
  O         1.7439492693       10.3713592810        1.8221248904
 Si         1.7548183511       11.2132295647        6.0647598571
  O         5.3885164057       13.2613978725        1.0775790590
  O         6.0456544626        8.6938580423        3.3939456497
 Si         5.2276051123       12.5851121652        2.5337538235
  O         6.1377853657       11.2705344454        2.6634753433
  O         3.7184793476       12.0184215697        2.7301995144
 Si         1.7541260438       14.0450419615        0.6798600631
  O         5.7068064431       13.7457549404        3.5603750947
 Si         6.6771030721       10.1647939727        3.7072343678
  O         3.5607412672        9.3754663289        3.3965122305
 Si         2.7602165556       10.7431764026        3.0772693457
  O         6.2229417452       10.5285415452        5.2221228872
  O         2.0737236698       11.2029496952        4.4782867287
 Si         0.8666253639       11.1284924246        0.6421341908
  O         2.3083884155        9.8664216214        6.7195505045
  O         0.1593939646       11.2010522333        6.2259747762
 Si         4.7785887889       14.5263047324        0.2917868908
 Si         1.9612354507        8.3490095585        7.0872344621
  O         7.4502574635        8.7969155764        6.8028065893
  O        10.7735810407        8.6307577870        5.0580334792
  O        10.0912765457       14.8253377549        4.7226489225
  O         8.3748844669       12.7669547707        4.5570036737
 Si        13.4824751324       10.7178454915        2.4250485095
  O         9.1225763847       13.7676568149        6.8279066236
 Si        13.0417188434        7.5681843234        2.2355245228
  O        14.3633378796       11.4431823568        1.3071150134
 Si         9.2282464584       11.6114616012        3.8340708005
  O        14.1028848880       11.1875075114        3.8133056948
 Si        13.7699585729       11.4352226073        5.3540664346
  O        10.3735893851       11.1851447372        4.8911200589
 Si         8.7622542377       14.1386663673        5.3105912401
  O        13.4410389765        9.1229019899        2.3221088059
 Si        11.1011611213       10.0301923461        5.7523769580
  O        10.5189604812       11.7690395362        0.0899919998
 Si        11.0478722027       12.3203130006        1.4870833671
  O         9.7875048925       12.3507134626        2.4966434280
  O        13.2727762534       12.9523012381        5.5476020391
  O        12.6753055892       10.3623615478        5.7998832673
  O         8.2942023890       10.2958578424        3.5687969581
  O        12.0071572894       11.2800717644        2.2388864976
  O        11.8480921864       13.6810000833        1.0722334522
  O        10.6987350888        9.9448407995        7.3005590609
 Si        13.8573246532       14.4603552336        5.4877573293
 Si         5.7337714900        2.8155609200        8.6221082077
 Si         5.8193610966        2.7105802506       11.7789105259
 Si         1.3662995089        2.7144319280        9.2534689260
  O         2.0021041897        1.8969626203       10.5121388123
  O         5.6533687843        3.1376226226       10.2164283652
  O         5.3062699174        1.1757308397       11.8546025042
  O         1.5789354376        6.2229826730       11.2799708162
 Si         5.0203086568        5.3716017156       13.1101793784
 Si         1.6401710589        1.2228644831       11.9392424138
  O         5.0554903314        3.8176706575       12.6883133366
  O         6.3839327340        6.2767461114       12.9390532570
  O         1.4042344808        2.3963877358       13.0131197753
  O         3.9762524778        6.0534645723       12.1056021368
  O         5.2291687612        1.3161611055        8.2824566455
  O         0.6785039952        3.9887284736        9.9553762651
 Si         0.7042839100        3.2783724956       14.1379755233
 Si         2.6734583860        6.9814571882       12.1824644426
  O         2.2402088200        7.1137096161       13.7432922901
  O         2.3258717318        3.2379937690        8.0397755102
  O         2.9013771026        0.3331015760       12.3585291787
 Si         0.3700254045        5.4531204551       10.5405219161
 Si         1.3103349384        6.1291189521       14.6115552624
  O         1.6633706805        4.5661021393       14.3498999497
  O         7.2832850024        2.9994869656        8.2102823323
  O         7.2957052799        2.8139817819       12.4387783513
  O         0.3294137409        1.6551917673        8.6244769325
  O         0.3276524647        0.2400700858       11.9482752826
  O         4.5623172833        5.5522215832       14.6716131671
  O         5.6504117225        7.2038657300        7.7907807912
  O         4.8132961780        3.8051546045        7.7165946308
  O        14.8489604208        6.3014941803        9.2842397953
  O        14.7510640997        6.3105226021       14.0083573376
  O        14.0874097561        5.3841475646       11.5964787839
  O        14.1664265892        3.8211579698       13.6770827345
  O        12.2869583462        5.8037677230       13.4296463713
 Si         8.4547102716        2.5718546221       13.5408008467
 Si        13.7941618288        5.3197848886       13.1670611232
  O         9.1982174127        4.5631967395        9.2743560541
  O         8.8052998035        1.9957303448       10.0457893112
 Si         8.7776092099        3.0576832421        8.8145127649
 Si         9.7542740579        1.2781983104       11.1473553985
 Si         9.5039112483        6.0869449101        8.8059603076
  O         9.6165975998        1.9196733085       12.6182189274
  O        11.2700774248        1.3258258294       10.5326963498
  O         8.1266851051        6.8758315727        8.5345101049
  O         9.1251798573        3.8991512340       14.1883618396
  O        10.4519642417        6.8080847650        9.8759068022
  O        10.3686509662        6.2280907974        7.4530980403
 Si        11.6117542605        6.5265931702       14.7089724489
  O        13.0068755057        6.7162751502        7.6238183612
 Si        14.6993670243        0.1461841301        8.4726736927
  O         7.8799459094        1.7363920564       14.8397461533
  O         9.7948105792        2.6429521496        7.6366848866
 Si         4.7292609110       14.8797090136        7.5691125534
 Si         4.4293547028       14.7937417528       12.2477764123
 Si         6.4683618592        7.8371454001       13.4520726064
  O         4.9738944285       14.2565420495       13.6577964762
  O         3.4095222297       14.4317288959        8.3727554812
  O         0.9059859152       13.9290315780        8.7874890743
  O         3.0799311801        8.4606575050       11.6858961029
  O         4.9755493986        8.6990454170        9.8782506016
 Si         4.4949617336        9.1927065164       11.3393313078
  O         5.6408222391       12.1028574670        9.5324874146
  O         4.4784890947       13.5196412142       11.2750730901
 Si         4.2966572573       12.1638291274       10.4226057332
  O         2.9135479055       12.2518697477        9.5519549549
  O         4.2347006230       10.7915357354       11.2848925300
 Si         2.3300440451       13.2367670372        8.3983253595
  O         5.6340439839        8.7905480973       12.4348267061
 Si         4.6815465478        8.3836833625        8.3317334875
 Si         6.6786890943       12.6544561843        8.4370385668
  O         3.1367431707        7.9562151105        8.1360962723
  O         0.3365038905       10.5298964553       14.0997654197
  O         5.8879557773       13.7618959185        7.5552279327
  O         0.9085377853       14.5892613782       14.3527284418
  O         7.1242462654       11.3696973483        7.5405196300
  O         5.8035918609        7.7985617305       14.9230654738
  O         0.4375840223        8.1291375714        7.5439123802
  O         5.0700209546        9.6997700395        7.4593629204
  O        10.4457187730        7.5211792045       14.2673660390
 Si        14.1492086027       11.1239413982       13.0141792796
 Si        14.2023859278        7.4723859482        8.4364667034
  O        14.0073401799       10.2817498520       11.6010793255
  O         9.4577204032        7.9593037479       11.8436627410
  O         8.0198705223       13.3500534450        9.0448613488
 Si         9.4987931251        8.4332936481       13.3643733856
  O        13.3483652299       14.9260311438        9.3539700289
  O        11.8681749248       13.8298953507       11.1299948088
 Si        10.9845722308       11.2136314268       13.5964118512
  O        14.6712076107       12.6498697085       12.7622525583
  O        10.1063714882       11.9680667406        8.6976138246
  O        10.4303808410       12.1751933805       12.4237376636
 Si        10.4589576619        8.2214666949       10.6362999015
  O        11.9338795366        8.6353431987       11.1882632645
  O        10.6910131338       14.4275697129        8.7952368456
  O        10.1926658101        9.8599954686       13.4211400073
 Si        11.8427081203       14.8594937295        9.8807634712
 Si        10.7491180471       10.5243295888        8.8015370348
 Si        14.7694223226       14.2138390012       13.1925855520
  O         7.9516059449        8.3767105182       13.7641931216
  O        10.8574436996       14.4174189146       13.6087415033
 Si        12.0062599648       14.6771118361       14.7033442675
  O        13.3551360272       14.5776914909       13.8472781451
  O        13.7645997179        8.6935957901        9.3832406655
  O        12.6115078010       11.1132273994       13.5931844273
 Si        10.6247071925       13.7418529144       12.1651708815
  O        12.1963262869       10.6860021631        9.5450118329
 Si        13.0251593989        9.6176387989       10.4683666397
 Si         9.4984402993       13.4095407060        8.3520132014
  O         9.4490900483       14.6028765770       11.4344061437
  O         9.9474754519        9.4440271377        9.7026098008
