216
15.019 15.019 15.019
 Si         4.2076318509        3.4916453344        1.6231464352
  O         4.8436916432        4.8546508468        4.6869473107
  O         5.8173635852        3.5194988423        1.6402978585
  O         3.5187719489        4.7039936718        2.4360663088
 Si         0.9389273144        6.4395987550        4.8873047390
  O         1.7965559794        0.8454744769        3.4473924375
 Si         3.7512114849        5.6167011716        3.7554745388
  O         2.4194906698        5.8621295201        4.6152540639
 Si         6.2667408497        5.4951078278        5.0901281642
 Si         2.8457327617        0.9271208540        2.2218715643
  O         3.9026904980        2.1139771826        2.4201517778
  O         6.8767612456        6.2769143139        3.8124603651
  O         6.0214644956        6.5731953625        6.2700738442
 Si         6.9556783973        2.3844848863        1.5816485721
  O         2.2010255693        1.3442991560        0.8045647641
  O         6.1081869794        6.5704724311        1.3441762472
  O         6.5581940964        1.0963576440        0.6310310295
  O         4.4356974284        7.0254132927        3.2975554119
  O         0.4618405685        6.4805781180        6.4224168234
 Si         5.9833492492        7.2052857390        2.8201533025
  O         7.1902058498        1.7131810945        3.0506130488
 Si         7.2169447809        0.1733582553        3.5761057315
  O         7.2789877343        4.3723867122        5.6271934702
 Si         0.3224698005        1.3784199101        3.8286644284
  O         0.3883228338        2.9624607514        3.5279949219
  O        -0.1497763981        5.4761785475        4.2208412246
  O         3.7665571249        3.5930846641        0.0611250319
  O        -0.0127447174        1.1776742325        5.4085339146
  O        14.8492620404        0.7849331419        0.0825793669
 Si         7.9277482927        4.1246324303        7.0872650467
  O        14.5567860160        4.6832181435        1.7922252780
  O         8.2190103301        3.2171819735        1.0160203640
 Si        14.3103021187        1.0798532334        6.8907041333
 Si        14.4577161384        4.2305937391        3.3241591481
  O        12.2056658723        5.7825738478        1.6475857703
 Si        11.1153203807        1.9975803629        1.3898736916
  O        11.0470654799        2.9589929521        5.3247688091
  O        12.9753410454        3.8215847586        3.7583737349
  O        11.0220210328        2.2491919929        2.9615902240
 Si        11.4169999256        3.4856133642        3.8844317835
  O         9.6134938879        5.6064107489        1.2500449769
  O        10.5755788642        4.8035103554        3.5104870040
 Si        10.7818127847        5.9078904509        2.3490458462
 Si        13.5946826463        5.5989714237        0.9019195520
  O        12.6492728119        1.7099642164        1.0143091492
 Si        10.8358697842        3.2550946343        6.8643538743
  O        10.0948741807        0.7895059160        1.0867781382
 Si        13.7478417390        0.5653485085        1.2444278402
  O        14.3261917456        0.6443625493        2.7656643747
  O        10.7353610652        3.3497167368        0.6207187111
 Si        11.3787431160        0.3573899603        7.2335310948
  O        14.3092136831        7.0359851141        0.6994692530
  O        12.8423110848        0.4607081550        6.5671629675
 Si         9.3771092120        4.1961576749        0.4400146343
  O        10.7983463439        1.8199588232        7.6005501738
  O         9.5121215834        4.0849326426        7.0439237512
  O        10.9467309652        7.3542184587        3.0491864575
  O         7.6599059285        0.0883693372        6.8806423640
  O        13.1455938814        7.1934283350        7.5875288620
  O        12.0354295652        4.1448741578        7.4250321681
  O         4.0746554303       15.0283728019        6.2528295138
  O         5.9440323797       14.7052609539        4.4553761595
  O         0.9299732799        7.9101770572        4.2237652964
  O         3.5337315570       14.4971207443        2.1198567732
 Si         6.9760038815       14.5302535931        0.7188717846
 Si         4.8166542093       13.9502434596        5.3223630332
  O         5.3192391974       12.7449881250        6.2843593304
  O         6.8788422655       11.0361399576        1.6364082435
  O         2.1901591095       12.1995233444        2.6652668874
  O         4.7571538484       12.2093648561        2.3466675842
  O         3.6728595589       13.3022265772        4.4241074738
 Si         3.5128748815       13.0610888384        2.8596121712
  O         6.4086067232        8.7497006347        2.8926521552
 Si         5.6361100500       11.8931805563        1.0475636445
 Si         0.6543019510       11.7760826249        2.8140582668
  O         1.0213837158       11.5730583736        6.8789698630
  O         0.4683053616       10.1631635512        2.8184199865
  O         6.0169561986       13.2959750696        0.3097658559
 Si         7.3394152073       10.0578082012        2.8436325623
  O         0.0711008277       12.3645610559        1.3953150691
  O         7.2865966709       14.2444649724        2.2758843887
  O         0.0929002108       12.2638005503        4.3060542344
  O         7.3625036943       10.7963695628        4.3019881541
  O         4.7632306928       11.0241192140        0.0165181466
 Si         8.6867744058       11.3251725823        5.1126499311
 Si        14.8634861589       11.4674875406        5.7459602734
  O        12.9041244944        9.3157968577        0.5517808032
 Si        12.0388343456        8.3049516856        3.7821240382
  O        10.8028790177       10.7884799613        1.3168999573
 Si        14.9052054931        9.0873419364        3.8839737404
  O        13.0567102767       14.1529610727        0.9566807770
 Si        12.1232409924        8.2236652424        6.8867065874
 Si         9.2354159465        8.9920630887        7.3130240720
  O         8.8673369914        9.6142387754        2.5209456914
  O        14.6317138633        9.9313122265        5.2507508382
  O        12.5089831143        9.7207645490        7.3515481336
  O         9.7745408902       11.5800138969        3.9044821692
  O        10.5538852993        8.0618433942        7.2014215290
  O        13.5390389883       11.9602867214        6.5608430895
  O         8.5289236311       14.9510288764        4.4569956516
  O        12.2087105053        7.9059499426        5.3190785068
  O         7.9829429316        7.9865886078        7.1992714393
 Si         8.7335653390       14.3341047808        5.9257684910
  O        13.5792896659        8.3741364617        3.2793275407
  O        11.4202764758        9.7653648788        3.6000003598
  O        10.2637021262       14.6256711833        6.3413475341
 Si        10.2214348537       10.4639037472        2.7944974728
  O         8.4524999553       12.7382038953        5.8701132322
  O         9.1496690287       10.1664998818        6.1787947132
 Si        11.8153859743       10.4314803098        0.0973979961
  O         8.2624538403       14.3894682817       -0.2257978588
  O         5.1762809597        4.4686746186       12.8253512629
 Si         6.3697292178        5.5311612641       12.4578160421
  O         5.9339925729        6.6265700603       11.3520160319
 Si         3.8918826867        4.6256675532       13.8323931739
  O         2.5784000774        4.4634868765       12.9114871383
 Si         0.9278103403        1.1516160897       11.7913194785
  O         1.0783633937        2.7615426686       11.4878224477
 Si         1.2684418602        4.3285448080       11.9796029841
  O         1.3250914958        5.5547039350       10.8765717408
  O         6.6311573183        6.3541035791       13.8412456698
 Si         0.7433820879        7.0205353240       10.4056861531
  O         1.7237537084        0.9308026826       13.2102268774
  O         1.3880652140        0.3919487270       10.4363786783
  O         2.8054414264        0.6995105467        8.3749410301
 Si         1.3806818588        0.5187811941       14.7371017973
  O         4.1371568990        6.0801212323       14.5373561396
 Si         7.0992981192        1.1880478665        7.9447907759
  O         5.4907688782        1.1854450480        8.0713520801
 Si         4.2337097462        0.2234676618        7.8377096963
 Si         5.5136188048        6.8675233738       14.9046006179
  O         6.0367470503        7.2750622937        8.8262565444
  O         0.2395985354        0.2368649409        7.9018752421
  O         0.4808087394        7.1047501188        8.8341618087
 Si         6.9219592030        6.8373670258        7.5768282890
  O         7.4348363001        2.7220947754        7.6570081566
  O         7.6764343765        4.7683401889       11.8913929572
  O         7.5809013127        5.4107943609        7.9835161789
  O        14.9606299015        4.6177105830       12.8271925533
  O         7.8199195659        0.7750003515        9.3196182935
 Si        14.5584409403        6.4125733228        7.7473648471
  O        14.2457459944        4.9386722130        8.3686941374
 Si         8.9922110233        3.9480628658       12.3555359986
  O        12.5271742798        3.3744975813        9.8437739028
  O         8.6926597697        2.3504319726       12.2790611262
  O        12.6665535572        3.2867003723       12.4379438197
 Si        11.6368126356        3.1489895593       11.1878367288
  O        12.6641336894        5.8135884791       12.2754366078
 Si         9.7294779186        1.1110467319       12.0732831355
  O        10.3336697290        4.1408937563       11.4249035648
 Si        13.3764868898        4.5909440231       13.0431656653
  O         9.2265171567        4.4552390744       13.8785620920
  O        11.0218518022        1.6510707335       11.2549071013
 Si        13.2266010555        3.6965005524        8.3986873986
  O        14.5380794991        0.3770591913       12.1269725368
  O        13.2151632898        4.7762517814       14.6100422309
  O        14.0054823608        2.4364291264        7.7404816924
  O        10.1771096119        0.6325051069       13.5306698963
 Si        13.0984065774        7.3442364013       12.0857687922
  O        14.3407829379        7.3525492366       11.0874687189
  O         9.0758710032       -0.1552774815       11.3356992666
 Si         1.4877364326       14.9133666605        8.8929882843
 Si         6.2942809544        7.8012636025       10.3177652731
  O         4.6014969119       13.8316156816        8.5282998569
  O         2.9135091113        9.3828713091       13.9277655076
 Si         4.4763146508        9.6746309163       14.2231127474
  O         1.7274459809        8.2847180195       10.6490875478
 Si         1.8431248125       11.7778800973        8.2833310568
 Si         1.4498081835       10.0474756112       13.7872134450
  O         5.3194458631        9.0702266571       10.3958726993
  O         3.2180053690       10.4015908040       11.1841371694
 Si         1.7505655433        9.8959339499       10.8227731038
 Si         4.7820074389       10.2234396327       11.3588054834
  O         1.3479865012       10.7230458998        9.4599214635
  O         5.3972537141       11.6602688376       11.0307072917
  O         5.2356916120        9.7853097988       12.8220115689
 Si         6.6228262332       11.9628790247       10.0511389516
  O         0.9423630511       10.1673566662       12.2303929656
  O         6.0949713567       11.7198854819        8.5331739940
  O         1.6444298228       13.2983781844        8.8349424890
  O         1.6366509947       11.4883556905       14.4674955480
  O         0.4041983448        9.2321463196       14.7021216205
  O         3.4337082810       11.5800828665        7.9114412132
 Si         4.8350655926       12.4058473500        7.7966544339
 Si         0.7616930687       12.7230837357       14.9579134671
  O         7.0473138368       13.4820342457       10.3261745256
  O         5.1645999073        8.4308216341       14.9493036881
  O         1.7239007091       14.0018360946       15.0971567163
 Si        12.2578710419       13.3823057097       14.7989443471
  O        11.8177607550        8.2112957216       11.6599533185
  O        13.2942484588       11.4221236673        9.2160815764
  O        12.5925892648       11.8092596497       14.7821794517
  O        10.6778502281       13.5274704233       15.0160066258
 Si        12.6341248144       11.2752117452        7.7246014788
  O         7.8231338698        8.3034992590       10.5526152998
 Si        10.8023479736       13.1759347053        8.9464738226
  O        14.8600123234       13.1439569989       13.6907159565
  O        11.1970487357       12.0479479522        7.8316824594
 Si         9.7849078748       14.8438715317       14.8488445710
  O         7.8159896319       10.9610341842       10.4025133370
  O        11.1069947224        9.8579182382       13.7604836012
  O        12.3759809151       10.7283142962       11.6551562630
 Si        13.9749842276       13.9395024907       12.5814216070
  O        13.7814573834       12.9831455244       11.2872714129
 Si        14.0681815929        8.4067369537       14.9063063837
 Si        12.7341019776       11.9344835071       10.6565766376
  O        11.5762493033       14.5475732895        8.5991857752
  O         9.8517704330        9.7846025469       11.4156921291
  O         9.3073543761        9.6265167116        8.7971627034
 Si         8.7130802195        9.6392786895       10.2935593728
 Si         8.2994543282       14.4216600136       10.0042197448
  O        12.5818661669       14.0820750933       13.3734695949
  O        11.3225985315       12.6768319760       10.3819592725
  O        13.5988695814        7.9782388101       13.4522168180
 Si        11.2690456178        9.6570596687       12.1508138691
  O         9.2336493644       13.5301746457        9.0051886826
