216
15.174 15.174 15.174
 Si         4.2854214282        3.1557778392        4.7516794343
  O         1.5233295590        2.9239882727        1.8989258314
 Si         4.9408718427        5.9577682461        3.5038825206
  O         4.9791657812        4.4297014827        4.0353439908
  O         5.3035122710        2.2905892193        5.6743443838
  O         3.1250176836        3.6290229218        5.7725497887
 Si         3.0855341387        2.6592202936        1.9651870389
 Si         1.5260987800        3.8376803167        5.7324019430
  O         3.6332389113        2.3663633642        3.4739332090
 Si         6.3371673385        1.5306139804        6.6745489875
  O         3.3205612202        1.4299774646        0.9673949936
 Si         6.8037683410        0.7258590810        1.7928502004
  O         6.2537525143        6.1769058244        2.5953461965
  O         1.2644893838        5.1340834569        4.8156764434
  O         6.7920304960        2.3376641652        1.5180836227
  O         3.6430027576        6.4760938100        2.6929469434
  O         4.9001492409        6.8717124866        4.8165753294
  O         0.8780108381        2.5383177403        5.0596300611
  O         3.7979285247        3.9531372850        1.3469100371
 Si         0.3842039358        5.8681605075        3.6864825584
 Si         7.1728378699        3.5932036884        0.5397215483
  O         1.1763935821        7.2012752541        3.2403770340
  O         1.1043282659        0.6255764566        3.2380104815
 Si         5.8180997399        7.3642567420        6.0188692915
  O         7.3538782252        0.6300618474        5.8412720540
  O         0.8695515990        4.0353938864        7.1842128594
  O         7.1991151334        0.3142950839        3.2891208253
  O         5.4559052659        6.5597054595        7.3609685045
  O         5.3652255685        0.0716803460        1.6608749263
  O         7.3462341657        7.1082759224        5.6161751345
  O         0.1563095050        4.9925827840        2.3676330665
  O         7.2808764076        2.5449259515        7.5066866116
 Si         0.0367503912        3.4679995021        1.9156180824
 Si         0.0965350000        1.5749120548        4.0581312161
  O         5.8975558939        4.4292861178       -0.0025996011
  O         8.1391658664        7.3444378611        1.0370033482
 Si         7.8044116812        6.1531753302        2.1104824914
  O         8.0533449485        4.7063628936        1.3602173363
  O        13.7640365745        6.1490991918        6.8345654571
  O        12.0064096175        2.9946956831        0.8834730477
  O        14.4571153420        2.5170384309        3.0035583312
  O        14.5307881444        3.4650416911        0.4694418031
  O        14.0644178336        6.0053563458        4.2595374063
  O         8.6944350820        6.3958420712        3.4717308503
  O         9.2406304700        5.1707706751        5.7725512723
  O        11.8535760503        4.8961531402        5.5370701920
 Si        12.9860324856        6.0821241439        5.4161298614
 Si        11.1868189318        1.8666901818        1.6717388390
  O        10.9801230496        2.3759705999        3.1669651065
  O        10.1219080560        2.7717933365        5.4604444172
 Si        10.6314747486        1.5886211959        4.5300951570
 Si        10.4799012001        4.1878704582        6.1102405903
 Si         8.7737179119        6.5712119019        5.0994562598
  O        14.3751052432        0.6268021673        4.9690952582
  O         9.5075840235        0.4763123467        4.2804544932
  O        11.8481760455        0.7979769482        5.2079198763
  O         9.8073483760        1.5893389711        0.8720783826
  O        11.8515492966        0.4037080765        1.8908393489
  O        12.2580386701        7.5043750238        5.2129742283
  O        10.5909785869        3.7905931411        7.6819635617
  O         7.7580215266        0.0050299036        0.7093098314
 Si         9.1984134843        0.3176959442        0.0665960596
 Si         2.5555516446        7.6637243723        2.5084542653
 Si         3.8737201948       15.1145649929        1.1444527831
  O         2.3770140103        7.8238338627        0.9056264486
  O         4.4422830619       10.9253811331        7.4290006747
 Si         5.3447797869       12.2699030147        7.1845923990
  O         2.9292776191       14.2956572250        2.1419120969
  O         6.8608174347       11.9383326647        6.6423715796
  O         5.3696498622        8.9018949581        6.2395732499
  O         4.5122876143       13.1173175681        6.0822560855
  O         3.0009509260        9.0939232314        3.1597405136
 Si         2.4531698207       10.2327399670        4.1921536582
  O         3.1557307672       11.7006822547        4.3472838880
  O         2.5359440593       14.2230239015        4.7393812422
 Si         1.8296334993       14.3745255865        3.2998772399
 Si         3.0363567764       12.8862773890        5.4756817816
  O         2.7680157930        9.6399830332        5.6805247015
  O         0.7753858402       13.1870971787        3.0898190778
 Si         3.9601581844        9.5017047578        6.7820532340
  O         0.9514860131       10.5942458353        3.6400666894
  O         1.9640924871       12.5684831628        6.6537483194
  O         0.6385573583       11.4723781554        1.1202919401
 Si         0.2560989573       11.7189970215        2.6744657368
 Si         8.0365718347       15.0933570511        4.5888689580
 Si        12.4986630558       12.3915376625        3.4715086396
  O         9.7944381069        7.6686430630        5.6983700629
  O        10.2073305601       14.2404308350        0.3214155040
 Si         8.3442049234       12.5083066464        6.2125508404
  O        12.1702570429       12.0126882731        6.7239841801
 Si        13.1653813148       12.9648326308        7.5617667960
  O        12.9572496206       13.6692637273        4.3438418387
  O        12.8644145444       13.8419590999        0.4133089794
  O        11.4593693451       12.9641014706        2.3623583884
  O         9.5487607345       11.4698023305        5.8555477314
 Si        11.2274806689        8.0597504437        6.3179031988
 Si        11.1460449601       11.1242681677        5.8543124852
  O        13.8234145137       11.6984692363        2.8487550732
  O         8.1396864405       13.5198580278        4.9644305114
 Si        11.5444843054       14.1250101579        1.2499183467
  O        13.1922574004       14.3900218079        6.8083367552
  O        11.2991465713        9.6432651251        6.4693095309
 Si        13.0698355823       14.9474098293        5.3101080395
  O        11.6936714021       11.2989378390        4.3431198303
  O         8.9205302706       13.2695606536        7.5108744536
  O         2.1333965010        2.2705686600       12.2566796561
 Si         5.9338043856        5.9860479154        8.7754128516
  O         4.5886140213        2.2960998389       11.7723961840
 Si         3.4281905634        3.2181249155       12.3681976297
  O         3.7856070919        3.4855203437       13.9086394776
 Si         5.8284637996        1.6448114706       11.0266082409
 Si         3.2244396424        5.3121318816       10.1239176240
  O         3.2431272096        4.6589975144       11.6190795777
  O         4.7271289429        5.3003818804        9.5668363014
  O         2.3808974657        4.2770707220        9.2458305490
 Si         1.5344288925        0.7643643456       12.2634310209
  O         1.0234691600        2.0536109220        8.8467228712
 Si         0.9918664959        3.6641976312        8.7457060497
 Si         0.6577663651        0.5377460609        9.2752367948
  O         7.0340155506        4.8773429223        8.5273272800
  O         6.1705875582        2.6314149113        9.8053854813
  O         7.0441169718        1.5767970669       12.1036869440
  O         2.6991929223        6.8594700262        9.9533717002
 Si         2.8478327018        7.2638891823       14.6338497061
  O         6.5659362238        7.1271414707        9.7126922538
  O         1.2605421848        0.3114892833       10.7456424262
  O         0.1774454597        0.9390667142       13.1116784184
  O         0.3968312400        6.2403296573       11.4540566292
  O         1.5068016504        7.0324346109       13.7499901963
 Si         4.2915588901        4.4603152478       15.0784030582
 Si         0.2406667318        7.1951305528       12.7622924022
  O         3.7111416639        5.9187459161       14.7857846655
  O         5.3868433362        0.2228001810       10.3452658235
 Si         7.2855548960        3.3444432058        8.9003503690
  O         5.6080942713        0.5496979588        7.7429327474
  O        15.0110629412        4.3562725191        9.6545209380
  O         7.8158202955        2.9274323552       14.3859162462
 Si        12.9352635899        6.3698978572        8.1998188393
 Si         8.2444160352        2.0478380832       13.0952212528
 Si        14.4233922378        5.6412228740       10.4717707167
  O        13.2043581388        5.2777593612       11.4882382142
  O         8.6061039229        3.4002043610        9.7982885500
 Si        13.7693697997        1.0248077705       12.8974394188
 Si        12.9646616900        1.0845805248       10.0266477225
 Si         9.5037557851        3.9530442083       11.0107281522
  O         9.2517738036        2.9938375929       12.2699681615
  O        10.9750750022        3.7256984000       10.4277419276
  O         9.3232678366        5.5116576802       11.4598365036
 Si        11.5922613379        3.6260725354        8.9468788362
  O        13.4382611044        1.6654268010       11.4567912256
  O        12.4051438641        2.2194982324        9.0093703712
  O        13.1174663928        1.9756805854       13.9956922639
  O        11.3021916873        6.4022246970       12.9625308776
  O        12.4946247292        4.9292689008        8.7584418127
 Si        12.7925303294        5.7704286968       12.9850943090
 Si         9.7623373963        6.6716835901       12.5126688185
  O        13.9173670586        6.8003956428        9.4135793823
  O         9.0045054619        0.7227302010       13.6807352355
  O        14.2301755454        0.3939846781        9.3180311248
  O        12.7297819750        4.5757701207       14.0619279280
  O         8.6859454665        6.6980874158       13.7448094534
  O        13.9831160773        6.7935319756       13.4369327132
 Si        13.1025069718        3.2797662639       14.9195636466
  O        11.6897621629        7.3465644245        7.7446595816
  O         3.3084248035        8.4634596911        7.8360318050
 Si         0.7151765315       11.9316204260       14.7479541268
  O         3.8751481193        8.2839833091       13.9102297446
  O         2.3762035090       14.7127529170       12.8832182436
  O         5.9184550273        8.0615618705       12.0850651936
  O         2.1960069375       12.4084362571       14.3090031973
  O         6.5274737521        8.3795206692       14.4698883373
 Si         5.9250945064       14.7009912937        8.9661885285
  O         1.1881441989       14.5270729788        8.3009095982
  O         5.3829078728       13.2126892641        8.5302300451
  O         4.5209764878        8.7657882358       10.0506880345
 Si         6.0071114428        8.3933260670       10.5117418578
  O         3.4851889675       11.3003105820       11.1293391782
  O         2.0545729401        9.4861337523        9.8768482583
 Si         2.0652696126       11.0234273509       10.3993729005
  O         1.7412209674       12.0860458617        9.2223338626
 Si         3.1014971917        8.3498347955        9.4328177520
  O         4.3465175566       12.8855167731       12.9491742890
 Si         5.3396959489        8.7665193024       13.4303583668
  O         6.1524922681       11.8497778609       11.3759446887
 Si         4.7394297237       11.5733504331       12.1255830611
  O         5.0685672365       10.3327972916       13.1178797709
 Si         3.1498185654       13.5937299134       13.7475438044
  O         0.8600627567       11.1403584227       11.4608053719
  O         6.9544333812        9.6424475606       10.1895145686
 Si         1.0972856503       12.9213364427        7.9863622860
  O         7.5118738662       14.5289605995        9.2504507697
  O         3.8768094329       14.3738600926       14.9269973311
  O         0.1625525500       10.6719810933       13.9079365687
 Si         7.4422941127       11.0299250845       10.8449532050
  O         0.1548121777        8.7067327263       12.2435564473
 Si        11.5133397966       13.5793366882       10.1492230073
 Si        12.1528412559       11.3787870948       12.3678769899
  O         8.1363068976       11.9386202104        9.7148691438
  O        11.6300765989       12.4766742473       11.3113395881
  O        11.9317598924       15.1022450087       10.4327214161
 Si        15.0288413029       10.2711175965       12.3743574161
  O        14.7121097283       12.4877354825        7.7412245189
  O         8.4650901825       10.5922740882       12.0214279163
 Si         8.0771256759        7.8982291496       14.6804336565
  O        12.4877240405       13.0417591681        9.0039518483
  O        12.5700296671       12.1919932125       13.6839108402
  O        13.1934282596       14.6997319845       13.1023719103
  O         9.9640700841       13.7495161552        9.8010240780
  O        13.5027736775       10.5910551561       11.9288944475
  O         9.0098839499        9.1757233154       14.2246954975
  O        10.9719770996       10.3483050789       12.7294792250
 Si        13.3945377680       13.4846899578       14.1404749244
  O         9.7068145766        8.1929172315       11.9218941193
 Si         8.6075369346       13.3555497486        9.0880126081
  O        14.9525826959       13.1917783428       14.3735632506
 Si         9.5405294720        9.6042188861       12.7292567187
