216
14.917 14.917 14.917
 Si         5.1900182037        4.0044503774        5.0561463345
 Si         5.2440918356        6.7245953730        3.3868968150
  O         3.6414387439        3.8146515869        5.4728335830
  O         5.3920898242        5.2197996260        3.9853170434
  O         4.2945549996        1.5758928559        2.8185461888
  O         5.8801435393        2.6557693821        4.4719776370
 Si         5.8416298487        1.6002562003        3.2486624133
  O         5.9063796440        4.3073891642        6.4551717641
 Si         1.6131343484        5.1875087603        1.5955109281
 Si         2.4446519801        3.7327985667        6.5658828676
  O         1.2560924950        3.8258919777        2.3927109856
  O         1.7514737621        1.1623857365        2.3961602839
  O         1.1682206950        3.2417289227        5.7189160424
  O         2.1458740271        6.3736359364        2.5716562354
 Si         1.3562983821        6.5189996515        6.6499324492
 Si         3.2280513938        1.1023973159        1.7166691509
  O         6.6316885497        2.1522039431        1.9748937662
 Si         0.6244029247        2.3421675115        2.3063270894
  O         1.8134145459        6.7046916357        5.1392952936
  O         1.2421362657        0.7499480374        5.2213764847
  O         4.7942865943        6.6379005508        1.8360877800
  O         2.7311962739        4.7175633322        0.4917798967
  O         1.9909614531        5.1485795413        7.1987295324
  O         0.2470254283        5.7224541948        0.9078621266
 Si         0.2823453078        2.0335797623        5.1812339582
 Si         7.2445589115        4.6074520940        7.2671693567
  O         3.0495547511        2.0734851355        0.4319963497
  O         6.5283719848        0.1747831816        3.6376540243
 Si         2.4444876682        7.3535555692        3.8364737937
  O         4.0278483676        7.4614138014        4.1334359261
  O        14.6705274535        6.6293257480        6.6365770252
  O        14.6631126516        2.2285921843        3.6661119721
 Si         7.6446760151        2.4312409411        0.7732324305
  O        14.7549408797        2.1577447226        0.9036277767
  O         8.2839083735        6.3011144303        4.5535527824
  O         9.5242600567        4.0737230024        3.8178309096
 Si         9.2532802912        5.1152199131        5.0146219870
 Si        11.2310832477        1.0300664683        2.1507010498
  O        10.6198067597        5.8147236052        5.4780280707
 Si         9.8861077686        3.9234940799        2.2414257398
  O        10.8442418917        2.6178430609        2.1578101348
  O         8.6234821329        3.5605529153        1.3270527373
  O        10.3541995683        5.3867259733        1.6636294120
 Si         9.6536334721        6.7958511926        1.1800721501
  O        14.0042349098        1.8277505689        6.2273189251
  O         8.5299689448        4.4760096014        6.2961473016
  O        12.5958333512        0.9787705117        1.3407545365
 Si        10.9086232364        6.8977347855        6.6369108735
  O         8.2951996691        1.0704623358        0.2411829111
  O        11.3541370631        0.4172183217        3.6512011130
  O         9.9407137834        0.1570055546        5.9590631747
  O        10.2729797104        0.0040341399        1.3394930835
 Si        13.6156818657        1.2695832238        0.1546866052
  O         8.3728510142        6.4617769131        0.2459623611
  O        12.3323733477        7.5366949059        6.3047203577
  O        11.8604726540        1.0715916601        7.2964832069
 Si        13.4390665410        0.9290831820        7.4210981374
 Si        10.3402885923        0.6079537569        7.4272460954
  O         6.5434992880        7.6965516032        3.4756367542
  O         3.8099554045       14.5901673008        1.2484983493
 Si         4.5341698684        7.7403010459        0.6855511478
  O         4.2156765046       11.9437326354        0.7471841387
  O         4.3994648997        9.2540031556        1.2575929187
  O         2.8222458778       13.7576133781        4.3078626450
  O         2.7403246969       11.1128397942        4.8097035812
  O         1.8929799963        8.8574368673        3.6477217462
  O         4.7278929319       12.1906933184        3.6542659087
 Si         6.1299649842       11.4085267679        3.6523698789
 Si         1.4803638160       10.3098994567        4.2022417072
 Si         3.6326302830       12.4562281724        4.7845422292
  O         6.2039822449       10.4474482935        4.9592369945
 Si         6.4425214812       10.4870106109        6.5731089915
  O         4.2287382410       12.8437867336        6.2144191672
 Si         1.3802417220       14.1259285285        4.9017947548
 Si         5.1643144311       10.6375779094        0.9267975636
  O         6.2159600219       10.7786355561        2.1637474445
  O         0.8153666905       11.1059633676        2.9773504536
  O         1.9278799149       12.9417039644        1.6508426224
 Si         0.6101079798       12.6297304187        2.5126057809
  O         1.2518988800       13.3378091827        6.2971435328
  O         0.3379331710       13.5826445206        3.8009906074
 Si         3.1877469675       13.2084971195        0.6954814839
  O         7.2808168473       12.5096772358        3.8132914596
  O         0.4121469774       10.2757261211        5.3841046057
  O         6.4691933350       12.0144946448        7.1266632841
 Si        13.6254252348        7.7036151012        7.2236094459
  O        11.1094155228       12.9885015395        4.9674327558
  O        14.5845473128       11.7586312839        7.5355180108
  O        10.2586335833       10.6775583979        5.9720183639
  O         9.0334757093        7.6196479038        2.4160731749
 Si        10.4126038003       14.3973562310        4.5910692223
  O        14.2505025383       12.8548120421        1.5759153299
  O        12.8460938701       11.1030314873        5.6445385680
 Si         9.2117845034        9.4338634531        6.0245029619
 Si         8.8877639838       14.5495217853        0.6208937417
  O         7.7965673813       13.8516211091        1.6011397938
  O         8.6990069240        8.9554463886        4.5579237579
  O        14.0040983829        9.2599323632        7.2251243988
  O        10.7086954273        7.7993541688        0.4853303775
  O         9.0446559475       14.2712861196        3.7971702765
 Si         8.1405355697        7.6777428039        3.7445690117
 Si        14.1835408425       10.6354382786        6.4348286148
  O         9.8574525303        8.1227962370        6.7124926670
 Si        11.4360132343       11.8037486862        6.0261192272
 Si         7.6120588464       13.9532826718        3.2110225685
  O         7.8891561861        9.8507445371        6.8699803516
  O        14.0121536077       14.3340257660        7.2860115881
  O         3.3164210707        5.4859033329       11.7736721812
 Si         2.4159226166        4.1338809720       11.6625022259
  O         3.0543557900        3.1644897344       10.5393519929
  O         0.9078946320        4.4822269116       11.2591469846
 Si         5.8597069920        2.5971954860       13.2866948829
  O         2.2484141497        3.4607218135       13.1339734603
  O         4.5877094253        1.5553057390        9.2000016317
  O         1.9942680456        0.9893306408        9.5269856587
 Si         3.0952359080        2.1473265848        9.2809034121
  O         4.6239397033        3.3993704683       13.9188208794
  O         5.6479155865        0.9872736589       12.9987200129
  O         6.3047047136        3.4809720388       12.0146858290
 Si         5.7517705856        0.4511513804        9.2443104750
 Si         3.1359008963        3.4318159251       14.4903406757
  O         6.7848578596        5.4095931266       10.5064518121
 Si         3.4071051755        7.0691489727       11.4551355223
  O         6.9613878861        6.0490543224        7.9528917681
  O         2.8073377937        2.8205920938        7.8457678233
  O         7.2068090518        1.0786831343        9.0297091363
  O         6.9817997114        2.9769737724       14.3603736190
 Si         7.2178844350        4.8266301745       11.9365743719
 Si         7.3012004695        6.5111761745        9.4613335753
  O         5.8004911787        7.4635093187       14.6664765100
  O         7.0488960243        6.0358969139       12.9957573088
 Si         7.2891827055        7.1137430553       14.1657570462
  O         2.9769671174        7.3107376416        9.9217490096
  O         7.5402407851        3.5690567316        8.4534428010
  O        14.4247885176        5.4599947157       13.3575468671
 Si        14.4087520309        4.9891711533       11.8246553309
  O        14.0839051504        6.2948704388       10.9438113529
  O        12.6675154452        1.1812952214       11.3621190741
  O         9.1125958234        2.4810939869       10.2847586538
 Si         8.3014528632        2.2367869963        8.9119311327
  O        13.4031292878        3.7257519065       11.7650023489
  O        12.9361982902        2.0716280588       13.8302458628
  O        10.9475418420        2.9078944987       12.1824954612
 Si        12.5131784418        2.4855584946       12.3075895808
  O        10.6135010061        4.6445886706       10.1875841581
 Si         9.8815590296        3.5914895817       11.1759032718
  O         8.7767862104        4.3962342873       12.0206917855
 Si        10.4058766140        6.1135992811        9.5529132331
  O         8.8808307584        6.5494957798        9.5419645487
  O        13.7647663138        1.3335230468        8.9525056683
  O        10.9362670469        6.1237322939        8.0413009580
  O         9.3725356548        1.8175499673        7.7980915505
 Si        14.5306404398        6.5085746034       14.5659968482
 Si        13.4254793807        0.3659573299       10.2179363626
  O        13.1011830365        7.2004401217       14.8332666364
  O        11.1071409397        7.2228302959       10.4480917955
  O        13.3467537816        7.3716046212        8.7672294057
  O         1.8285755289        7.7016487884        7.6152247424
  O         5.7981783749       14.6750028237       10.6740963524
  O         0.5862620311        7.7106444264       14.1733672121
 Si         1.3579585311       14.5674272874       10.1651016870
  O         4.8811635922        7.6929786767       11.6813817936
  O         2.4010213554        7.9525644119       12.3518889070
 Si         5.8084569545       14.4212971503       12.2402854188
  O         6.7250019737        7.9528186806        9.8579106003
  O         1.8246090743        9.9319578396       14.0254998381
  O         2.3322178157       14.0948448939       11.3558802046
  O         2.7497189491       13.5901474633       14.0980084237
  O         2.1633089742       11.7778591991       12.3485367648
 Si         2.9649720169       13.1967917238       12.5430941283
  O         4.5840099531       13.3610589955       12.4452531633
  O         1.0758790150       13.5169831518        8.9477666688
 Si         5.8024875971        8.7650655261       10.8937950974
 Si         2.0089405447        8.2990533076        9.0838732137
  O         4.9602679473        9.7883537444       10.0226723038
  O         2.7548467064        9.7076044001        8.7777556907
 Si         4.2781821497       10.2611902430        8.6614546148
  O         0.5816578199        8.3715472307        9.8662469628
  O         6.5651367539        9.7023205613       11.9489612554
  O         4.3043521098       11.8796791152        8.6155467363
 Si         1.0223674371       11.1716058234       13.3456966885
 Si         2.0210600238        8.3299328443       13.8709457987
  O         5.4598924855       14.2489502344        8.1184156945
  O         0.5790389915       12.4215718140       14.2701133807
 Si         7.0911530912        9.9745144349       13.4492553770
  O         5.8758494436       10.3570902589       14.4303240086
 Si         5.1163119331       12.7986763919        7.5502898042
  O         7.1998803250       13.6641852455       12.6019874083
 Si         0.2719380995       13.2473742226        7.5668968510
  O         3.1303087521        7.6196392551       14.8127046277
  O         5.2045678068        9.7793470180        7.3799892879
 Si        11.9084205472        8.1957602397       14.3885248685
  O         9.5328219704       12.3423142937       11.9370268906
  O        12.9383259251       12.3445692929       14.3359788722
 Si         8.4485979347       12.7342826981       13.0765812469
  O        14.8366945099       14.8313541226       10.8513510011
  O        12.0325860946       11.4339664151       12.1959331092
  O        11.3628836579        7.9389616838       12.8939221025
 Si        11.3698600378       13.2014569815        8.9027267389
  O        14.4693287434       10.6813028877       12.8465804530
  O        11.6748240149       12.4475188474        7.4978915127
  O         9.1247184651       13.5931281849       14.2663002845
  O        10.2690101761       14.3394057274        8.5359696184
  O         7.8716757666        8.6056220333       13.8344956057
  O        14.1747555696       14.7378325777       14.5846132379
 Si        10.6929248669       11.3852167734       11.3172770732
  O        12.5806057972       13.9950882868        9.6805859544
 Si        11.4921224006        8.4577045303       11.3716722635
  O        13.0744166812        8.7156873149       11.0199688898
  O         8.0334004040       11.2650470825       13.5861153102
  O        10.8665493659       12.0208315366        9.8568556115
  O        12.4227540598        9.7538613300       14.3307574453
  O        10.5206198836        9.7620203582       11.1746851752
 Si        12.9659493840       11.0046771384       13.4288944279
 Si        14.0402624266        7.7111824705       10.1750435477
 Si        14.2032284884       13.1494651541       14.9121169196
