216
14.84 14.84 14.84
O      12.627860338600005      3.370535572499986      7.853726161999999
Si     13.810939594200002      3.567072773699997      6.741482211500005
O       0.259672462900006      2.702827566100003      7.114893883800007
Si     13.602986751100017      0.294426548500006      9.549453489899996
O      12.287252084800004      0.058503381400008      8.605654693500005
O       0.093132084100009      0.730299389400007      8.776310355200005
O      13.604909349499993      3.196504155699999      5.163607115399994
Si     11.543135164500002     13.439354357200004      8.583864962900005
O      10.238230326699998      4.187332476200004      8.268458760400005
Si      0.767329931200004     13.079077025400007      3.919890708100009
Si     12.900242254699998      2.723587067199986      3.774484734500001
Si     11.702929658599984      4.184260463300000      8.933675348000003
O      11.390144045699993      3.105937021000004      4.067384789800020
Si     10.071044354400000      3.829814562600003      3.601388868200009
O       9.979037644700004     13.418642817900020      8.185589636900009
O      14.168781665299997     13.759793313299996      3.980740804400008
Si      1.663264188600005      0.814183235900007      9.144416248899981
O      12.870569112799997      1.127332129000006      3.493264758200019
Si      1.851860830300000      2.753807962599993      6.941497704200019
O      11.626752547900002      3.358666705100002     10.320948797900011
O       0.994111517200006     12.598601337800011      5.405561764700008
O       1.827487762200000     14.152895242900003      3.410890516200012
O      11.620355603599993     12.839554983000001     10.096859734699997
O      14.035553893900005     13.720209277400009     10.189080770799997
O       2.396708087400008      1.876175801400000      8.174678192800013
O       1.974171526400004      3.784610737100008      3.575519440399994
O       2.387193635300008      4.269000351200006      6.952175955099987
O       8.970466755800008      3.359415975500009      4.643074355800003
O       2.329406770400000      2.112986665500003      5.541450799100010
O       9.165367485099997      1.785616610600001      8.935164922799995
O       2.394411618000004     14.231362234500018      9.012988386899998
Si      8.917211207299992      3.319315833300000      8.514817632800003
O       4.365335129300004     13.917494273700008      4.067340249300006
O       8.168822153499990      3.189869899000002      7.116387623899996
O       8.796152484399993      0.903959582400010      5.621600586199992
Si      8.012983653500003     14.406621688800001      5.058137921500001
Si      8.198814245600014      2.437349042600000      5.697300648400007
Si      5.985378065200000      3.099743309100006      3.912408347000003
Si      6.003108245400004     13.593102219600002      7.002107752900007
Si      2.966708140399996      2.632756931600002      4.152679669900003
O       6.668798043799995      2.519020607000006      5.236472036500011
O       4.713990226499984     14.071272529000002      7.853098616799993
Si      3.438952938600002     13.196024309900020      8.378160827700000
O       4.435572423800007      3.271967430099988      4.303903672099997
O       6.607588027399998     14.559974537600013      5.870887859199999
Si      8.531724672600008     13.239373798400006      8.933195505400001
O       7.266210853500009     13.343000756800011      7.950160661499998
O       8.740036308699993     12.927852147599998      5.223538368099990
O       8.162990965099999      4.015989216500014      9.765366462900001
O       7.661412108899993     14.586842672299989      3.498002526900009
O       8.484499200999995     14.378398066100006     10.085921031299989
O       6.443788817399997      4.578577796000000      3.492645923900009
O       4.866277724499997      4.502219505600011      9.181356897199992
O       5.439097054999993     12.352840505200000      6.122490905099991
O       3.217385989200011      1.394281885300000      3.179664408400002
Si      9.058474549899998      1.014145800299996     10.347083677699992
Si      4.878662036099995     12.470447363500002      4.597790138399997
O       2.728757464500005     12.348349136000005      7.214202832100007
O      12.543618880000002     12.511963357300008      7.701694732700004
O      14.190679963199996      5.092256961400017      7.039646251099995
O      10.304464504600000      5.416174288600009      3.732924273400003
O      12.054810199299990      5.709297138500000      9.351121912599996
O      13.603499570299997     11.201593157099998      9.753800708499989
O       0.255679727699995     11.447421128700002      7.615496934500002
O      13.756217746900006      7.649897446899978      7.289437877199991
Si     14.643408737699998      6.543929368900005      6.572547054500003
O      14.257370165199990      6.567246047100002      5.041172754700010
Si     13.570605122699993     11.307949900999999      8.108618927000002
O      12.949365054400007     10.053607086799994      7.363933785400003
O      11.227221483599987      8.381658658599981      6.388314760400008
O       1.396783824800013      6.727196105100004      6.795871647099996
Si     12.432483242500000      8.556920303499997      7.446216377599996
O      11.886214778500005      8.306362715100001      8.926769024700004
Si      1.458860873400008     11.616880893899998      6.564691715199999
O      10.810817833200003     11.770908896700012      4.058722487799995
Si      9.794987249799993      8.598935355099998      5.663204561399989
Si     11.849973347600001      7.169455423399993     10.056332689000003
O       9.985255124600002      8.053471210399985      4.145363253500008
Si     14.376672465599997      6.892930237899998      3.505631321900000
O       0.993966412200003      6.326461101699999      3.072425765999994
Si      9.637766990899996      6.789091722800003      3.204482945600003
O       1.901700628499998     10.202396397300012      5.886005146999993
O      14.027573110600002      8.466612801499990      3.402587062200002
O       9.405974979900002     10.200604850200000      5.641248321600007
Si      7.562027882099998     10.810729178700020     10.554851922100003
O       5.939624382500012     10.615762992700013     10.337498137500001
O       6.262785826499997      8.305859152799989      6.634891478200001
O       2.892072522800001      5.838466744400000      4.836685601400004
Si      2.671576072200008      5.775449026500000      6.449263453999992
O       8.666898011699997      7.647773345999985      6.379202869199996
Si      6.522730312700003      6.151505944499994      3.196915843600004
Si      2.265749878300000      5.385063446899998      3.409924656400003
O       4.069606488299982      8.883603447800001      5.139061998800019
Si      5.623880782700011      8.390212878300007      5.134120506799998
O       3.965677544900004      6.241222287900011      7.273475586700002
O       2.309353404600007      9.700618980899993      3.246858042900006
Si      8.749848294000003      7.868188811599989     10.354680585000006
O       8.057044801200004      6.591421301200001      3.246947068999993
O       6.512371764799991      9.461610199200004      4.323294063899999
Si      2.988413438399995      9.997428124599999      4.696802123500007
O       8.417978457200002      9.448417067100003     10.502241329699999
O       3.653716685299999     11.448085866300008      4.471289167100005
O       4.789027900599992      7.069468753900001      9.599569637799997
Si      9.326267954699984     11.493326700899997      4.619568327700009
Si      5.046076012199988      5.948479357599994      8.441101049500009
O       6.101105409399997     12.015098858900005      3.672866427800006
O       8.166909549299993      7.582328146499981      8.860210174100001
O       5.701781772400000      6.988536155500005      4.316902065499997
Si      7.419999999999999      7.419999999999999      7.419999999999999
Si      6.830782424100002     10.638738134899997      3.288119597500003
O       8.330229926199996     11.766311165899998      9.517517302799984
O       8.402710583399999     10.960947979500007      3.395793038300002
O       3.961999357200001     12.100887197699992      9.415776740999998
O       6.525136480900009      6.083185642099997      7.770279092400008
Si     14.458059038200000      0.524177255300007      0.124826468300007
Si     11.891621683099993      1.369160388799997     13.955516982500004
O      13.360301414499993      1.622558028400005     14.545576242800001
O      14.194802880199999     14.823078285100006      1.605217013100020
O      14.193845117099999     14.009169404199998     14.054127300700014
Si     12.788349701100001     13.395126965700006     13.488206456500006
O       0.744441228200008      3.784612981500000     13.552456201499986
O      11.869597867000003     14.722250515900015     13.299815053399996
O       0.991744865000000      1.371876235100014      0.031003577800005
O      10.890585556000010      1.548478376799995      0.361483919300008
O      11.705541973300011      2.385765619799990     12.724795636100003
Si     11.778865478299993      2.001181197399996     11.158982815799998
Si      1.729750685900014      2.670524644299991     14.221500661999995
O      13.437903349500004      3.513206016600004      2.436800773499998
O      12.125278626399995     13.429042033800011      2.507376783800008
O       9.732219944399995      3.361445524599993      2.090612171900005
O      10.559872274399986      0.966966203700001     10.913361700800001
Si     13.280740150099996     14.521346202899997      2.890325489000008
O      13.117043451499997     12.430436641399995     12.225774949200003
Si     13.198490629699988      4.890400858299998      1.593024069800010
Si     13.110162084999994     12.477022161300008     10.633392896100000
Si      9.547703948799997      2.214388922099999      0.961559697399993
O       1.807695401700003      1.299840608100001     10.667847694800010
O      13.180220693200008      1.304259615500019     10.741521788600005
O      11.878537640600003     12.427001147000000     14.384553759699999
O       2.652697130400002      2.043937091200001     13.082545157199986
O       8.834247334800001      2.875226453500008     14.538440260199998
O       3.969257946700009      2.633512566399996     10.985881710500001
O       2.646796172199995      3.515010546399999      0.435863152700010
O       6.178166787400013      3.763667776800001     11.404421644400015
Si      7.240858128200013      0.720492071799991      2.279824183999998
O       8.654893073699986      1.055730366899994      1.594690515200017
Si      3.059421687100005      1.452639644800002     11.666151641299999
Si      3.974754721999991     13.430745816800004     12.796629415499995
Si      5.049085832499999     13.968482280600004      0.737706344499994
O       4.878547664600013     14.071858974400003     13.975919971099994
O       3.554328294100001     14.739589235600004     11.907239567900003
O       3.714056690999996     14.413925774200017      1.519070420800016
O       6.336047361399993     14.813139672100009      1.187914130700017
O       8.419950224099994      4.275090060300010     12.445335239800000
Si      7.728482161800004      3.478908390900008     11.235773306800002
O       8.090538316200002      1.889255390199993     11.310812815199993
Si      8.438338523100006      4.346984429500013     14.051836689400002
Si      4.743892883599999      4.045886207500003     10.752678891300002
O       6.426938066600004      2.045264760999999      2.750883889199996
O       5.199160068400005     12.437728218400006      1.182696776500003
O       2.896816089699998     12.428927127600000     13.554014681799998
O       4.711459696399986     12.352693524899999     11.836752567999998
O       7.014181277499993      4.603869989600011     14.781902827900009
Si      3.298615806799996     14.643318395299996      3.057763227400000
O      14.272628913300002      5.176383272500013      0.429230574900012
O      11.719189447499986      4.954685139700005      0.932057300099996
Si      0.479903368499993      5.325381756300001     14.033401930900007
O      10.733420658499989     11.349423705700000      1.477990086199996
Si     13.669499191500005      9.494411763799988      2.209054106600007
Si     10.860163855200010     11.219230461800008     14.709554348600001
O      11.471166268099996      9.851952475199996     14.125331737400010
Si     12.359788803400003      8.555692889799987     14.419250774000012
O      14.837731048599998      6.310394926000005     12.835058830999991
Si     14.303661485900008      7.725235762400000     12.186124972299998
O       0.732606096300010      8.642052439499986     11.651344234200012
O      11.542707572899994      7.159798244299995     14.299634856600003
Si     10.726309795900001      6.146402080799996      0.427929618100000
O      13.599536776000008      8.547266459699998     13.391788179599999
O      12.798141276999985      8.714312368800000      1.116903771500005
Si      1.494135493300017     10.599857701000005      2.151759785700011
O      10.147702998300002      6.992452783699998      1.683830423800006
O       0.254565859699999      9.797712670800001      1.516367860500002
O      13.113732228299995      7.401170484699990     11.084748627999994
Si     11.673104045399992     11.867701623900009      2.694819105500002
O      13.277516824000003      6.088543682500001      2.663972153299996
O      12.946345405000001     10.845675360100012      2.747791756100001
O       1.891215458099999      5.902528741400015     14.624266128900004
O       9.495405787799999      5.494581521099996     14.462831468500019
O       0.836028063699994     11.845481112600003      2.911703234500002
O      10.305136828600004      7.395392515699993     10.584310526999994
O       4.501847070300007      5.416640824100012     14.697454406299999
Si      3.006199200800003     10.956842298600003     14.278708399699997
O       4.534132520099997     10.444311441399988     14.537054486299995
Si      2.306736406000003      9.124995892400001     11.897410819000003
O       4.214659291600002      5.411831141999996     11.494653117499999
O       7.769074888499993     11.463117805599998     12.005698971599998
O       6.621373564599993      6.983271000699995     14.038327924499995
O       2.390201279300006     11.097102390000012      0.922040968699997
O       2.313279064500008      9.795669106599989     13.381632116200002
O       6.024072074900017      6.412424172800008      1.686792522300020
O       6.936842529100005     11.367145183100002     14.456940925299985
Si      4.455185693899997     11.250282902099999     10.672851756300005
O       5.524512217100008      7.889522529299972     11.975966537199996
O       3.217690843600000      5.505056947099992      2.104899134399999
O       9.408018101599994     11.200868999000011     14.036145065100003
O       7.662520063300000      9.187501761500005     13.223304922300001
Si      5.729271376300006     11.058538718600010      0.589868019600006
Si      3.078430039900005      5.091034812100003      0.542906833300014
Si      6.024661808599999      5.858751844700004      0.177789347900019
Si      6.962086125600004      7.816625990199977     12.710283988000000
O       3.050403210700011      7.720136851199988     11.647750092199994
O       3.224365941200009     10.200544195000008     11.006237192300002
Si      7.988939286899990     10.768142152200006     13.429985217100000
O       7.929036880099992      7.156122130399995     11.576389505299996
O       6.274931519300006     10.190016474800009      1.837911367200005
Si      4.413369572199988      7.009824619800002     11.186128102000000
