216
14.847 14.847 14.847
 Si         5.9096638325        3.1485473950        2.5816689044
  O         4.5891278168        4.0193748676        2.3120074500
  O         6.2707279803        3.3854199703        4.1203669569
  O         5.5178965162        1.6545679041        2.1322808933
  O         1.7237703419        1.8883463662        4.9541871906
 Si         3.0129483225        4.3677471232        2.2789821300
 Si         2.3393490282        1.6171757836        6.3983199833
 Si         4.2209171632        0.7798852792        1.7064696758
  O         2.9853042297        1.5672750061        0.9934501669
  O         1.8979756220        3.5522242205        3.1185639218
 Si         0.9980953109        3.1774632886        4.3948539472
 Si         6.5303217740        3.4761855979        5.6931875173
  O         2.9651792083        5.8449894174        2.8829857323
  O         2.5609764245        4.1366076136        0.7424759625
  O         1.0660666734        4.3260215277        5.5117944263
  O         5.1823935079        3.9582751049        6.4375285340
  O         3.6323563310        0.7358654390        5.9532168641
 Si         0.5872048570        5.7375151386        6.0888739646
  O         0.7477702097        6.7605438925        4.8674865069
  O         0.5362868036        2.5510339183        0.4891308720
  O         6.6863383927        6.8940106468        7.0049212804
  O         6.9948914243        2.0010726940        6.1087541746
  O         2.7248620907        6.9228395711        0.5985434588
 Si         2.9787610244        7.2684518800        2.1560220487
 Si         2.1353757578        2.6857565038        0.1636250580
  O         7.2482033530        3.4663482711        1.7295146757
  O         1.1472161186        1.0734285403        7.3454189976
  O         2.8104002761        2.9721656793        7.0937420215
  O         3.7089803915        0.2540962726        3.1258983773
  O         6.9251813759        7.2584860609        2.4721574259
 Si         7.4373339655        7.2093447999        0.9162837020
  O         7.6559537776        4.5619375619        6.1111792774
  O        14.3195066283        2.7115400526        4.2121723646
 Si         7.9368420572        0.7047732749        6.0324485092
  O        13.1202811804        3.2180476245        2.1340364722
 Si         8.7116740905        2.7796013514        1.5692635240
  O         9.1589860446        2.1491452976        2.9785552781
 Si        12.8257664041        3.0867248605        3.7177592606
  O        11.6028281790        2.0509424637        4.0368196929
 Si        12.4327554282        5.1718800514        5.9693589928
  O         9.3963790062        1.1589108169        5.4366536449
  O        12.4547038293        4.4480302308        4.5248300549
 Si        10.1263927930        1.3299093132        3.9821272944
  O        13.8761768770        5.6914757126        6.4394066345
  O        11.4600628498        6.4423545079        5.8610581760
  O         9.7356710930        3.9530198273        1.1647033156
 Si        13.7754325514        2.8185701503        0.6914559301
  O         8.7442068304        1.6548390886        0.4029040733
  O        13.7564916836        0.4001270643        6.1720171426
  O        11.9522859036        4.2123983014        7.1681982115
  O         8.5041270275        6.0927105425        0.4109518934
 Si        10.5401864587        7.2315075627        6.9208676217
  O        13.0260007487        1.4762329515        0.2446290360
 Si         7.7743452632        5.7306497216        7.2306288082
  O         9.2351365584        6.3541498441        7.1718764410
  O        10.2405231403       -0.1665674092        3.3847898754
  O         4.7796923518       14.5051353342        0.6708835783
  O         1.7443721159        8.0822212083        2.7847064220
  O         4.3771126599        8.0019802467        2.4846137780
 Si         4.1216386749       10.7551160629        0.4775441202
  O         5.8289676356        7.9210220311        4.7711371018
 Si         3.6180494717       14.5972205157        4.6483557394
  O         2.8027741756       10.5563328692        1.4031662273
 Si         1.5467110136       10.2752798467        6.2407682396
 Si         6.0645255643        8.2167372389        6.3422958405
  O         4.8497866933       13.6055072911        4.8583273237
  O         2.1406502298       13.9975677073        4.7017146420
 Si         1.3112154090       12.6535495197        4.6238070881
  O         2.0685719269       11.6360641149        5.6031982412
 Si         6.3732820974       13.1437123636        4.7196613099
  O         1.3244418409       12.0398086859        3.1403929691
 Si         1.3976466169       11.3209772071        1.7081306740
  O         6.1939030213        9.8122658642        3.0443988998
 Si         6.4870132157       11.2205610468        2.2809908065
 Si         5.8240687773        8.2358866485        3.1901396085
  O         5.2272899254       11.5559401952        1.3259189888
  O         6.6807868179       12.4632039843        3.2889832358
  O         1.5697522053        9.1621542097        5.1148327999
 Si         0.8583938794        8.1553029396        4.1219472428
  O         7.0163804099        9.4831620346        6.5987032869
  O         6.5189481034       11.9502920793        5.7745008864
  O         1.2362780077       12.4539555276        0.5841539300
  O         0.0793769300       10.5536964077        6.8411284160
  O         4.7009926313        8.5762662869        7.0902867474
  O         2.4680313932        9.8158653988        7.4214555728
  O         0.1569540798       10.3039829126        1.6481143816
  O         7.3409172344       14.4071827859        5.0398202538
 Si        11.4967678737       13.7560961795        2.9881326454
  O        10.1436199330        8.6680691499        6.3416639550
 Si        11.1934836804       10.6081822983        3.0965656280
  O        12.4834245464       10.0617449088        2.3087076305
 Si        12.6817508291       14.7632286908        0.1910680524
  O         9.8825707586        9.8225957042        2.5595279629
 Si         7.5989080643       10.9605558933        6.3994683458
  O        14.6849912963       12.9457731906        5.1884185033
 Si        13.3767154162       13.8133201020        5.5256161289
 Si        13.8872637531        9.2901939148        2.2275526694
  O        13.8604864504        8.0042973280        1.2448892949
  O        10.7936972806       11.0642787581        7.1655323624
  O        12.6148410828       14.0117021858        4.1261820610
  O        14.2687447712        8.7463839040        3.7001885230
  O        12.4576587831       13.0279686753        6.5976263487
  O        12.0361060604       14.2678359894        1.5698660606
 Si        10.3270351605       10.1965395649        5.9004840656
  O         8.9011301818       10.8077757243        5.4486302689
  O         8.2479780005        8.5902779440        0.7411037845
  O        11.3652893674       10.3143556296        4.6774274478
  O         7.8368729413       11.0541477456        1.4059756716
 Si         8.9893974889        9.9372602036        1.2087544652
  O        11.0581208271       12.2075956816        2.8854742273
 Si         5.4937834791        2.3849270400       10.0565324612
  O         4.7828371421        2.7134968412        8.6646460316
  O         6.2702763946        3.7238592858       10.4756547948
  O         4.3645249138        2.2986962038       11.2173704265
 Si         3.5586777546        1.6897726489       12.4743524139
  O         2.6373234057        2.6325484864       13.4503181985
  O         1.8110397041        5.8526902655       10.0657255116
  O         6.4362528207        1.0669523821        9.7403081478
 Si         2.4783116475        6.1777462876        8.6322546759
  O         4.6940010638        1.0034423223       13.3638856915
 Si         0.9252431318        6.4183897285       11.2950326062
  O         2.5635357758        0.5991707668       11.8767079925
  O         3.6460884470        5.1214145494        8.2671131890
  O         1.7298841592        6.1951453220       12.7085554654
  O         6.6725615576        6.3982494781       10.8143687486
 Si         4.1164735520        3.7195614200        7.6235437333
  O         6.9915244488        0.1700365920       14.0975900859
 Si         7.2401012085        4.9787832112       10.2671504864
 Si         2.2620304350        7.1912998416       13.9060800764
  O         6.0347309166        7.0985392441       14.9245180283
  O         1.4024026325        6.1162905406        7.4205358022
  O         7.5747756216        5.1092441584        8.7027541447
  O        13.6072084167        6.5291656259       13.9435681182
 Si         7.7502132246        0.2383647109        9.1705668076
  O        13.6190045263        2.3948776192        7.9250697468
  O        14.3497287786        5.6842369935       11.2145854923
  O         8.5113739796        4.5400326867       11.1365077004
  O         8.0091572184        2.3774430034       12.7929090514
  O        12.7867351826        4.2159399269        9.7537100847
 Si        12.3880029882        3.3367385934        8.4430401733
 Si        12.8052255423        5.2745908567       10.9882930622
  O        11.0399519704        2.5503003106        8.8379996685
 Si         9.0792857476        3.4621403485       12.1839773898
  O        12.2892293584        4.7792708416       12.4391951303
 Si        10.4409346644        1.7023747298       10.0723016800
  O         9.5416850989        4.3534561516       13.4393756225
  O        10.2366361536        2.6369340801       11.3884346249
  O         9.0037026177        1.0718870313        9.7353721817
 Si         8.2537176512        1.1118460842       13.8015415628
 Si        12.5852923488        5.2733812511       13.9514045296
  O        11.7979517335        6.5179427069       10.7082127164
  O        11.5453093645        0.5341711169       10.2414910064
  O        11.2250905383        5.6951261214       14.7558321188
 Si        14.3812858727        1.0177761015        7.5289562644
  O        13.3660589760        4.0431969089       14.6056415834
  O         9.3202135158        0.1733963386       13.0385891530
  O        14.1066030000        0.0102085327        8.7393836866
  O         7.9213104316        0.1662626834        7.5581070588
 Si         9.7236293236        5.0812737349       14.8625881262
  O         3.0534001062        7.6682656973        8.8245809455
 Si         5.4448678231       14.6131975016       14.0388556244
  O         3.7193206092        7.6731539120       13.3503706009
  O         0.9227351910        8.0842432733       14.1778527877
 Si         3.6104281808        9.0262193742        8.1728108154
  O         6.1919445367        8.2503724787       12.7087107137
 Si         5.1795655550        8.0912530963       13.9504357092
  O         0.9896456890       14.0174812736       10.5699087762
 Si         6.7909843654        7.9492425616       11.2451219728
  O         5.2833805684       13.2827509160       13.1242786134
  O         4.0489871888       10.1401059081        9.2523605844
  O         5.9302631519        8.9189640858       10.3038973712
 Si         4.2137659141       12.1590780364       12.6423010909
  O         3.0511164998       12.8644932767       11.7891369386
  O         4.7890081909       10.9643771099       11.7208297685
 Si         1.9160125894       14.0007861286       11.8584063405
 Si         5.2510943285       10.3830588522       10.2805808511
  O         1.0743335206       13.7734542383       13.1925158647
  O         6.2789808650       11.4732686175        9.7269461736
  O         3.6307592263       11.5431034262       14.0116881906
  O         0.5853846380        8.0051131709       11.1372869377
  O         0.2512001860       12.4517153598        8.7346058442
  O         0.3339492055        9.9081694316        9.3316423564
  O         4.8678929564        9.4037541478       14.8426669158
 Si         0.2519650838       12.9258822507       14.2619750864
  O        11.2947929783        7.4229090460        8.3192833659
  O        10.0704805005       10.3093784766       14.9373355283
  O        13.2678188541       13.3565446251       10.5575175442
  O         7.8375186192       13.5231471379        9.6532992622
  O         8.3228062518        8.4155743394       11.0606649742
 Si        11.8500470893       12.0954006182        7.7643109725
 Si         9.3571455836        9.6542578306       10.9554122021
  O        11.7162667370       14.5075897364       13.7811465567
  O        14.0224078894       13.9298999461       14.8544134744
 Si        13.4254222565       10.5205697270       13.0368269314
 Si        14.5912673822       13.6564923856        9.6675268748
  O        13.1984377066        8.4051542961        9.7360901128
 Si        14.5495195542       10.9959282597        8.3330822923
  O        11.2227617900       13.0400421511        8.9277437752
  O        14.4302368885       11.6263696584       13.6055503790
  O        13.4409755421        9.1555050003       13.8601575230
 Si         7.7747601006       11.9181054998        9.3378595120
 Si        10.4381369072       13.8760920297       13.0410160736
  O         8.0220242975       11.6395992821        7.7820062412
  O         8.8182080499       10.9068863701       10.0782039305
  O        11.9250507255       11.0647096255       13.1259145019
 Si        10.3760013378       11.0284083941       13.5494739854
  O        13.8650349238       10.1507158296       11.5442773241
  O        10.8054609289       13.3593278578       11.5513558729
  O         9.8949784796       12.5499679702       13.7710033574
 Si        14.1922665139        7.9124484814       14.5167335276
 Si        11.7175647330       13.7787245517       10.2959694365
 Si        14.4332183103        9.0877920216       10.4844784985
  O        12.9552000123       11.1301828753        8.4236229184
 Si        11.7017373562        7.8499557440        9.8004656610
  O        10.7196428897        8.9904877994       10.3892805378
  O         9.5642633284       10.2268140110       12.4356081725
