216
15.109 15.109 15.109
 Si         2.9993468027        3.6319537927        3.6418376982
  O         5.1929027489        5.5880335596        5.0337015695
  O         4.5832840728        3.7678998307        3.2993227218
 Si         5.1543668950        5.2945474593        3.4207356351
  O         6.5149702110        5.3657428136        2.5882082109
  O         2.9190867510        4.3384964403        5.1169906120
  O         4.0886327544        6.3138102220        2.7604436430
 Si         4.1584677101        4.8425091030        6.0716173932
  O         2.3616569305        2.1961428319        3.8512934657
  O         2.3559317692        4.3190818414        2.3153806157
 Si         2.5275971382        4.3417168718        0.7039054097
 Si         1.2646539790        1.0272963341        3.8170884251
  O         4.9761077370        3.6875867094        6.8571088672
 Si         6.4152599871        3.0295682951        7.2104609939
  O         0.2983204685        1.1925733201        2.5442412388
  O         7.1704296352        2.9145950063        5.7973856812
  O         1.8144436765        2.9814458235        0.2234136774
  O         1.8236782800        5.6680630666        0.1401755141
  O         0.3111857902        1.1020616716        5.1140045714
  O         0.0767819171        0.9443340367       -0.0087607107
  O         3.5427479423        5.7453822845        7.2485205296
 Si         2.0608279079        7.2515504608       -0.0166636904
  O         7.4682178071        3.6290336696        0.6572058124
 Si         7.7014576594        4.4057385448        2.0461981333
  O         7.9455735624        3.3742079594        3.2425139471
  O        10.9403161960        1.2609222243        0.7965282298
  O        13.3753152531        4.3375056803        3.7690725979
  O        13.6998048400        2.9707158218        5.9841414907
  O        13.6933067704        3.6858856292        1.1228987984
 Si        14.2601163063        1.4547345422        6.1819461897
  O         9.5083816238        6.3511821998        6.3556753748
  O        14.1665702583        5.6003838083        5.9020110222
  O        10.3236014696        5.9149131810        3.9501090496
 Si        12.7228865604        3.7488525609        2.4169865064
 Si        10.2412880770        5.2410554173        5.4142068090
  O         9.4484743762        3.8485290890        5.3392156921
 Si        13.2298275954        4.3969862596        5.3868143004
  O        11.4799748226        4.6500926079        1.9643643244
 Si         8.3467500738        2.8505354549        4.7076348731
  O         8.9653669071        5.3493337611        1.7993679139
  O        12.2011043479        2.2829294611        2.8324700295
  O         8.8119000707        1.3410557291        4.4018860616
 Si        10.3978633398        5.7628434082        2.3513691922
  O        11.7346539565        4.8063042229        5.8784962656
 Si        11.7937668328        0.9015288658        2.1132824855
 Si        14.4248307359        7.1835348225        6.0039074297
  O        10.7886959130        7.1477966612        1.6581682651
  O        13.0511952228        0.3961834623        6.1367270559
 Si        14.7548455165        0.2815128633        1.3922819293
  O        10.8620915556        0.0790682934        3.1372128941
  O        13.1581124945        0.1577712731        1.6517828507
 Si         9.7742520322        0.0558205213        4.3410267813
  O        14.6360905693        7.5601363617        7.5600606752
  O         0.6400570272        7.5513163467        5.1888799578
 Si         3.3882876372        7.7602115280        2.6568340305
  O         2.2669512729        7.7969086808        1.4991882387
  O         2.7503185085        8.2644344344        4.0247742915
  O         2.1294138291       14.7954187101        3.6219871162
  O         1.1738300563       11.3353970783        7.0259313099
  O         2.3517597846        9.0535887258        6.5095184746
 Si         1.6733600157        8.7700864464        5.0739773157
  O         5.2693089478       11.1867336557        1.8616579543
  O         4.0735212975       13.0621929012        4.0999468348
  O         4.8756293919       10.6106835859        4.3851448552
 Si         5.1904117077       12.1421757862        4.8381576130
  O         4.5647853042        8.8003081853        2.3688259941
 Si         5.3790473880       10.0186428900        2.9775009054
  O         1.6526921707       12.7467509552        5.0450322500
 Si         2.4866367497       13.2421033522        3.7869900457
  O         5.1879887517       12.1910138222        6.4454139747
  O         1.8842020723       12.3411700811        2.5733737044
 Si         0.9651964589       12.5023082838        1.2463372758
  O         0.9393134115       10.1706222571        4.6655683496
 Si         0.7223328782       11.5518633203        5.5155023497
  O         6.6976846108       12.5194382756        4.4082532650
 Si         5.9192989345       10.9353238070        0.4028899287
  O         6.9405366908        9.6027009501        3.0740388193
  O         0.3076051350       13.9451113762        1.4129892138
  O         7.4750785864       10.5454556860        0.6988788932
  O         2.0413087781       12.2782034314        0.0755445452
  O         8.6647212445        9.0378373123        7.0002909651
 Si         8.8303163122       10.6858769319        6.9367944768
  O        10.5325193779       15.2635565845        5.7400017390
 Si         9.8163121041        7.8425845458        6.9414632113
  O        11.6498898587        8.8867340645        3.3910017025
 Si        10.8474835790        8.7090894358        2.0161513606
  O         8.8978607098       11.3286544248        5.4330038954
  O         8.9699982768       13.7771274164        4.2590484789
  O        12.2006798780       10.5959339537        5.1906322676
  O        11.5656200141        9.4418991888        0.7868257755
 Si        12.8429457922       11.7633290784        6.0837687178
 Si         8.3009781610       12.3209958287        4.2734360165
  O        10.8592979788        8.4981728181        5.9128830233
  O        13.2853520537        8.1087134428        5.3450660523
 Si         8.1161931506       10.2607001829        2.1628301881
 Si        11.7603799002       14.6337139412        6.5229044929
  O        14.3123967324       12.0372035009        5.5075158892
 Si        12.0189502944        9.0174642977        4.9442037435
  O        14.7902884292       11.5726801841        0.7823798573
  O        12.0235565929       13.1370503733        5.9897298011
  O         9.3590826677        9.2769502598        2.1245544503
  O         8.5829444825       11.6474311747        2.8385952998
  O         3.1590463503        1.6609735774       10.8683618142
 Si         2.5519018769        2.5543795384       12.0545182699
  O         3.7708041943        3.1491999901       12.8986370786
  O         1.6485723264        1.6542511123       13.0603183883
 Si         4.5222347707        4.4056749529       13.5515470530
 Si         5.0366848056        5.9016403566       11.0031312775
  O         3.8630625284        6.0625260639        9.9161798839
  O         1.6503592361        3.7823629660       11.4881597858
  O         4.4042190048        5.6545895201       12.4941748258
  O         5.9291844871        4.6372560941       10.5465258907
 Si         0.7933820807        4.1744086861       10.1658958783
  O         1.8131039087        4.7303034874        9.0475496549
 Si         2.8377525635        5.9206590464        8.6893699736
  O         6.0833547938        4.1625510209       13.6191854654
 Si         0.8271715791        2.1523649314       14.3593691208
  O         1.5719931393        0.4704669040        9.2847004314
 Si         3.0491188480        0.3585585451        9.9212782512
  O         1.9553030631        7.2399271454        8.5874555919
  O         6.6010552918        0.2966916365        9.9888037212
 Si         5.8316463500        0.2227524673        8.5685432356
  O         7.2174468822        3.8688261699        8.3865298896
  O         0.2368336211        2.8339562943        9.5266877812
  O         4.2332560700        0.3086857508        8.8159213023
  O         5.9730322821        7.2351683734       10.9489248982
 Si         0.1824923291        1.2851594657        9.1526934066
  O         7.3195816855        1.8808863164       13.8417401234
 Si         7.4029543633        3.4615222873       14.1621014420
  O         4.0002057073        4.4873452566       15.1004586155
 Si         7.3382703366        4.0486457671       10.0177320629
  O         6.2210364354        1.5163621503        7.7113987280
  O         7.6298731239        2.5902081272       10.6215990907
 Si         7.8905240191        0.4339084558       13.4140779571
  O        14.6560491506        5.1778238116       10.4748802413
  O        14.7873863925        3.1535869859       13.8623376239
 Si         7.9593997053        1.0304991785       10.4473432541
  O         8.4157549824        0.4743582087       11.8836397611
  O        14.1639455309        0.7097444803       10.1409405330
  O         8.5780811479        4.2449320128       13.3753573404
  O         8.5050900705        4.9618756256       10.7137249046
  O        10.7172454174        1.8931601128       13.3788003322
  O        12.3451301916        3.9245010869       13.9262373087
 Si        11.6241921001        3.0865373149       12.7449198022
  O        12.7435413332        2.3583626483       11.8060365433
 Si         9.3139443696        5.0103838803       12.1461286192
  O        10.7033327383        4.1691904875       11.9595685728
  O         9.5280396747        6.5757253084       12.5879603216
 Si        12.8928011206        0.8970436953       11.0976060598
 Si        13.9903053983        6.6287580319       10.7915323848
  O         9.1297087547        0.7845676814        9.3481409112
 Si        14.4159091428        7.0403597764       13.9315872205
  O        14.3139561530        5.5841443312       14.5662158290
  O        12.5072620907        6.8510800408       10.1378936479
  O        11.5098609454        0.7196103570       10.3110462302
  O        14.0079030246        6.9265126886       12.3714084004
 Si        13.7630546185        4.0985147924       14.6598036734
 Si        10.6045386914        0.6837211170       14.4504725584
  O         9.1169164546        0.0918507172       14.3936556233
  O        14.8784160051        1.1990257276        7.6262507720
  O        10.3991504942        7.4763951926        8.4157120816
  O         0.7616988077        7.7040666398       14.2421636949
  O         6.3720903922       14.0015183186        7.8067181916
 Si         0.5473167255        7.9839777657        8.7429877894
  O         5.7370519431       12.2733693131       14.6582831071
  O         3.3825830913        7.7778316073       14.3185719196
  O         3.3622530022       10.6410207104        8.2552482429
  O         3.2235988687       14.1353871116       10.7794669669
 Si         5.6901250512        8.8182634139       11.1078015113
  O         4.7251939936        8.9736863994       12.3774781200
 Si         4.0325881513        9.1640142467       13.8037281123
  O         3.6055057855       11.4944826508       10.7183759609
 Si         6.3113280053       12.8361941312       13.2661979138
 Si         3.6317665228       12.8360106461       11.6049511016
 Si         4.3556454939       10.8356960517        9.4705767763
  O         2.8389316873       10.2328617467       13.6953061687
  O         5.1207833823       12.9784008091       12.1994768347
  O         2.5193214350       12.6651361423       12.7382960477
  O         4.8844149896        9.3648627263        9.8308000376
 Si         1.9493570309       11.5624595691       13.7419226486
  O         5.5067433298       11.8758844858        9.0451406376
  O         0.9536785165        9.5280462562        8.7326214006
  O         7.0042462483        9.7550288981       11.1730208395
  O         6.8523662011       14.3243721816       13.5331007052
  O         5.1945335753        9.6876659432       14.7903975218
  O         0.4030882136       11.1845592145       13.4520117146
  O         7.4066195190       11.7156566252       12.8271874253
 Si         1.9918423821       10.1307329298        7.6653147093
 Si         6.2017998259       12.3901945089        7.6917628832
  O        13.0650251524       10.4003255713       14.0788538684
  O        11.3383514002       12.7425993039       12.2803460296
 Si        10.5365716123       12.3373364328       10.9348783181
  O        14.9596126260        7.7208734583       10.1476518092
  O        11.2515815205        8.5035556409       13.3884043219
  O        11.2565094177       14.6356920351        8.0615423384
 Si        14.1987385671       11.4992382829       14.3500681399
  O        11.5718906794       14.5547926135       14.1728307726
 Si        12.3791969817       13.6988784983       13.0861128669
 Si        10.4773303942       14.9935057198        9.4287674714
 Si        11.3824800849        7.9288280014        9.6255847061
  O         9.2950054348       11.3294268716       11.1753864119
  O        10.2110863213       10.9344112800        7.7821282545
  O        13.3692352362        7.9407140448       14.7261725786
  O         8.8941151638        9.2811032311       12.7541199732
 Si        10.0083375087        8.1311687766       12.4288441713
  O        13.0630666209       14.7860777426       12.1245318788
 Si        11.6313909944       10.7737434925        8.5825371860
  O        13.5364169025       12.8931218356       13.8573509669
  O        11.5724211603       11.6488708227        9.9199247492
 Si        12.2690560164        9.0711028511       14.5011438579
  O         9.9968030745       13.6711422620       10.2149446014
  O        12.0406458932        9.2826065011        9.0454717443
 Si         8.1568514007       10.5297149499       12.0046683412
  O        10.4576464664        8.2790695474       10.8886211255
  O         7.5593247898       11.4989815204        7.5570494172
  O        12.8274163385       11.2648301130        7.6224459578
