216
14.88 14.88 14.88
  O         1.9119472630        1.2281956274        2.9781118663
 Si         0.7602302826        2.0042437300        2.1489574857
 Si         3.3477940638        0.6076469458        3.3888637891
  O         4.3783083298        1.6559959846        4.0545901118
 Si         5.7977629683        2.3442436843        4.3848842759
  O         1.3837443820        6.1626025710        3.0638627879
 Si         5.9821380004        6.5667874583        1.4573601457
  O         5.9425292031        4.9627405407        1.2241774178
  O         5.7057478301        2.9724140093        5.8726945762
  O         1.2394940407        3.5581573184        2.1591744815
 Si         6.2546902564        3.4289461757        1.6016908876
  O         5.1422932576        2.3932222430        1.0803068565
 Si         4.4118149640        1.0146234821        0.6942412453
  O         6.2031107865        3.3880271662        3.2219259192
  O         0.9105863301        4.4650102421        6.2033365583
  O         3.9804501722        0.1596535142        1.9802869689
 Si         0.4609847576        4.8971727198        2.6472696255
  O         7.0408339535        1.3217094480        4.4695257798
  O         5.5390681480        6.9312414054        2.9624302810
 Si         6.6177897400        2.5294222596        7.1366429211
  O         0.3188633311        1.4862563245        0.6704856845
  O         4.0497748533        7.1035938475        7.0254712841
  O         4.9579068681        7.4323151083        0.5795258394
  O         6.7752225250        0.9100622090        7.2755083106
  O         7.4612465992        7.0297065056        0.9984924813
  O         7.6234446155        2.8917121838        0.9052252219
  O        14.4669230600        4.5468655465        3.9541429719
  O        12.1473306790        6.2839336055        0.4151491119
  O        14.3775037972        5.2044491310        1.3972496676
  O        14.2838213902        1.8091996392        2.9919636015
 Si        14.4398577643        4.0036401787        5.4580960220
  O        14.3079804293        2.4045162007        5.5328046334
 Si        13.7376936619        6.4121058597        0.5551486557
  O        10.5661905194        4.1234381100        6.5306021733
 Si        11.6538347058        4.8104681859        5.5892336219
  O        11.5774259656        3.9826336594        4.2193285168
  O         9.5916744198        2.2365877058        4.3025091477
  O        11.0735280452        2.5606738745        2.2299716426
 Si        11.0969479344        2.5088120759        3.8029014037
  O        11.3297324226        6.3618096062        5.3805764128
  O        12.1476794643        1.4044784437        4.3813517690
  O        13.1428262229        4.6327849121        6.1926891074
 Si         8.6117409871        1.0157972517        4.6327037217
 Si        13.7665490721        1.3473815809        4.4435102270
 Si        11.2016355328        2.4536773907        0.6613620756
  O         9.0080819820        0.4939136813        6.1152660789
  O         8.6007465193        5.7720064435        7.0299339413
 Si         9.1853482069        4.2835852293        7.3063038272
  O        12.5016029959        1.5631934060        0.4136854401
  O         8.1049552224        3.1515419146        6.9338246569
  O         9.9035758060        1.7303385237        0.0823897908
 Si         8.1989027878        0.1307111389        7.4708524491
  O         5.2997634722       14.8692858173       -0.1597377822
  O         6.6113505162       11.5702676301        6.8540196006
 Si         1.5511225618        7.5525321599        3.9109033940
  O         3.1513183030        7.7676997712        4.0531798286
  O         0.8288390877        7.5222242482        5.3791092859
  O         5.6138531605        8.0079597021        5.2167281492
  O         3.2252758582       14.2228688499        4.3795841104
 Si         4.7494558263        8.0325361531        3.8488588923
  O         4.4567999014       11.0851005644        1.1387943431
  O         6.2141219151       11.6640630626        2.8212142246
  O         1.1389674070       12.7291492062        4.3036899486
  O         4.8661118579        9.4778463061        3.1584658411
  O         2.9745866452       12.0750545447        6.0283163855
 Si         2.7452137548       12.6867183378        4.5611441304
  O         3.5676591148       11.7447912180        3.5436445717
 Si         4.7413701605       11.0049739547        2.7085788978
  O         0.8344913707        8.7586288293        3.0737307862
 Si         5.4127582915        7.9369654046        6.8094342543
  O         0.5805204104        9.7430369572        0.6571128869
  O         7.1016392984       12.9926974420        0.7466743223
  O         5.1219399009        9.4466722982        7.2804625656
 Si         7.4749984753       11.8477245861        1.8246594382
  O         8.2596459213       13.3903203338        7.6041712444
  O        14.3961939719       14.8219492722        4.8732311854
  O        12.0679087357        8.2674071774        3.7988628736
  O        11.8363660262       12.4007287504        6.1873644790
 Si        14.7397800870        7.7067585313        6.6906837393
  O        13.3899808550       12.6431565681        4.0480868065
 Si        11.9225155006       12.2471889014        4.5765522131
  O        10.6921329190        8.8355157546        5.9429369613
  O         8.8412008241       14.7284471669        3.5585586668
  O        14.0475391880        7.7045050750        1.4064763876
  O         9.3408372173        8.5989028688        0.0020558279
  O        13.2297275223        8.0155595116        6.1961946206
  O        14.3967989967       12.7367008704        6.4476442748
  O        10.7950705227       13.2020453624        3.9822497951
 Si        14.6647782429        9.0904636494        1.8807137557
  O        11.6472790755       10.7487607664        4.1308679552
 Si         8.1059671903       12.0999655050        6.6085246480
 Si         9.1979765309       13.2057869065        3.8662089881
 Si         9.9058297382        9.4992972519        7.1723437682
  O         9.0935287929       10.8364352010        6.7889527129
  O         8.7712165874       12.3176729530        2.6300666727
 Si        12.9872060364       12.8066099102        7.2518991320
 Si        11.8488251733        7.8823867338        5.3524505207
  O        10.6598931062        9.6725302476        1.9812688843
 Si         9.5367412011        9.9577373783        0.8359582286
 Si        11.9277353851        9.6599960719        2.9853626421
  O        13.3775970356        9.9854239799        2.3141992150
 Si        14.6174818210       13.2315757046        4.9066375557
  O         8.0202753704       10.4235201436        1.2431079367
  O         8.3579808635       12.6519526404        5.1255034254
 Si         4.9544350208        5.7280072559       10.7590965023
 Si         5.8890090129        2.8231199914       10.0427291615
  O         3.8052957165        1.5720875072       12.3171243015
  O         5.2034278993        4.1390974016       10.6605830552
 Si         2.9806402082        2.4151566522       13.4102292221
 Si         2.8311717065        5.4169609989       12.9936804241
  O         1.4652487041        2.4731173884       12.9662596377
  O         3.7110679294        5.8638695204       11.7414085158
  O         1.2662052251        5.2279045011       12.5769483054
  O         3.3892028305        3.9852403879       13.5562857506
  O         5.9613160548        3.1343118058        8.4628363533
  O         0.9893552562        0.9992241185        8.8303999983
  O         5.2000664362        1.3871883131       10.2543767827
  O         4.4586511674        6.4449463732        9.4207726809
  O         3.0544029732        6.7053757201       13.9702951710
 Si         4.1719104520        0.5223891888       11.1497990768
 Si         3.2819329374        6.8497430529        8.4147709942
  O         6.2784053348        6.5340288514       11.2419027327
  O         2.2547696913        5.6120308651        8.2706518538
 Si         0.8611624290        5.0363125683        7.7187357866
  O         0.4114463755        3.7331267198        8.5878172432
  O         3.1328567877        1.5721167784       14.7772565464
  O         7.2995506269        2.6582767280       10.7509945427
 Si         0.2501051801        1.8178370587       12.1903145240
  O         0.5701688831        0.2580967998       11.9069899170
 Si         0.0661220762        6.3143284173       12.4846575596
  O         2.9709066077        0.1647332983       10.1662866525
 Si         0.0204236996        2.2842464769        9.1921274118
  O        -0.0012828924        2.5488648404       10.7919543372
  O         6.6180990577        7.2791641979        7.6840678797
  O        14.7948845855        6.3610319195        7.6105409321
  O        14.3839714526        6.5332764381       13.9725835282
  O        13.8994584169        1.8902465152       13.2250741490
  O         8.2565491277        2.8050464312       13.2328272012
 Si         8.5823137471        2.9301786922       11.6586612735
  O         9.0935392342        4.4419823124       11.3498112271
  O         9.5916961746        1.7400076662       11.2309416307
 Si         9.6307149066        5.2271172701       10.0426373550
  O        11.1584909050        5.7095012908       10.3365852249
  O        13.4100909394        1.8105787625        8.7558030667
  O        13.6442933793        5.9505357762       11.5641905031
 Si        12.0335877351        6.2468331831       11.5971118408
  O         9.5868955834        4.1356544234        8.8582298222
  O        11.4125206302        5.5429243960       12.8926161171
  O         8.6707777016        6.4505694784        9.5056765194
 Si         9.7093802392        0.5697268901       10.1236990940
  O        11.1764442571        0.6547966280        9.5074607503
 Si         8.1784039780        6.9803623203        8.0219393014
 Si        11.0652431264        5.4392410241       14.4540771749
 Si         8.3603486514        1.9945426482       14.6355129960
 Si        12.6770020045        0.4000049628        9.0700258227
  O         8.7562333527        0.7483735113        8.8404602818
  O         7.7699493448        0.4967720353       14.5484546954
 Si         8.5206723356        7.2311748434       14.6742246278
  O         9.5877615103        6.0213738828       14.7119263514
 Si        13.8856308584        1.1080647458       14.6524315117
  O         7.7646182984        7.2899526822       13.2373474506
  O        11.2420108178        3.9055841743       14.8735498681
 Si         1.8093162844       14.5088433272        9.2188992625
 Si         2.8960598961       12.0694761128        7.6389490489
  O         3.5564079060        9.3817507741       14.3064084841
  O         0.8308722661        7.6154583719       11.9008781997
  O         1.9925848834       10.8393754006        8.1840504910
  O         4.3933133375       11.8129359788        8.1936436798
 Si         4.1617680447        7.8947458481       14.1555052603
 Si         6.6186508960        7.7960264883       12.2119158029
 Si         5.6407052330       10.8273566378        7.9049835932
  O         5.2236904318        8.0911094730       12.9632979974
  O         4.6333053889       13.9691959028       11.7396272383
  O         6.6854016008       13.3744583536       13.1412502562
  O         2.5619162644        8.2393058103        8.8449951442
 Si         1.4498674059        9.4195184967        8.7369041721
 Si         5.3670817102       12.7170121125       12.4595873981
  O         4.4781270997       11.9106125922       13.5460188173
  O         0.8262428348       13.4732700981       10.0028706944
  O         5.7919386289       11.5747047336       11.4142578018
  O         6.4443310460       10.4134372258        9.2335921557
  O         2.3923210628       13.5670048017        8.0350178401
  O         0.9047934557        9.6669579275       10.2522139020
 Si         6.9158761880       10.6377783491       10.7472052990
 Si         0.5380047487        9.1984131197       11.7543245612
  O         1.2330608501       10.0916243031       12.9059847981
 Si         0.8946474249       10.7781733506       14.3503298383
  O         7.0951193243        9.1836556622       11.4819484055
 Si         3.7178512905       10.9734596144       14.6109438552
  O         2.2346168232       11.5760198338       14.7182316316
  O         0.3297071508        8.9175016300        7.6718194087
 Si         6.7475007314       14.1457967181       14.5563987023
  O        12.1372760629       12.5535638769       13.8850039824
  O        14.1303555901       12.9002463996       12.1544203813
  O        11.5706301246       10.0884297352       12.9812996898
 Si         9.5580166311       12.4486518299       10.9024953531
  O        13.8953209776       14.3926676076       14.3858208355
  O        12.2414267268       10.1619020213       10.4339393517
 Si        11.6857419544       10.9919191139        9.2085177339
  O        12.7367954956       14.3054064763        7.7815519418
 Si        13.6773213847       12.9518767044       13.7169099121
  O        13.3844799491       14.5638643002       10.3304696447
 Si        12.3405905356        9.3470475550       11.7933498333
  O         8.2792004144       11.4934423710       10.6729723082
  O        10.9912981956        9.9173055426        8.2636363923
  O        14.5578575661       11.8125058664       14.3907575695
  O        10.6476711523       12.0876024750        9.7588019324
  O        10.0915838726       11.1601529987       14.7982720192
  O        10.0824434472       12.1534806782       12.3837989085
  O         9.3344827784       14.0416283442       10.8197321269
 Si        10.9863593064       11.4927290214       13.5159627011
  O        13.8823016575        9.3418882012       12.1550479300
  O        12.8980121113       11.7424720714        8.4492268436
  O        11.8129809699        7.8449730684       11.6548278875
 Si        14.6559089896       13.9811776740       11.1059325109
  O         8.9311576283        8.3700904126        7.7666859443
