216
14.949 14.949 14.949
Si      5.200135154500022     11.903370893199984     14.424790370499988
Si      6.832099925600012      8.076199941900013      1.537383494699988
O       7.023196123000012      7.841439531599995     14.897802633399998
O       4.459009901600041     11.014302801899992      0.618540695999980
O       9.174058937100023     11.770448838599989     14.057802366300002
O       8.056232784999999      7.337058109299994      2.290766756199983
O       8.524384015600013     11.747211936200008      1.614504626099978
O       5.452125122100004     11.170412894599984     12.983544293099978
O       5.372204909000023      7.515016436199992      1.940182981999987
Si      8.211626105100015      7.744790042800004     13.803729305599976
Si      8.244100032200008     12.512290819499999      0.224349410899987
O       6.658551012700010     12.401708003899987     14.896643975499991
O       7.011498569400012      9.633538002500005      1.948533822199989
Si      7.661697086800003     10.922972243600007      2.684763746499994
O       8.932567512400015      9.170799733799981     13.821804075799978
O       3.960907430400007     11.487379650399982      3.250784684999998
Si      3.346315378300007     11.110675934799993      1.812683813399990
O       6.504521227200014     11.840806705899999      3.272611575000000
Si      9.570010496300023      7.401279631599984      2.851567695399992
O       8.610755010100000     10.582361537499997      3.933281633199996
Si      4.078675137700015      6.604748834299993      2.310818857699989
O       4.210886010100007     13.159368446699995     14.153753832099991
O       3.952274041700012      6.668585468299984      3.922771641499998
O       7.690309006600004      7.355079026099990     12.329720698699983
O       2.641177656000010      7.167649658299998      1.779208795799994
O       9.683432882800012      8.265834190500000      4.189199332999995
O       9.268887797100030      6.588333988499990     14.158067143699977
Si      5.221448665800005     11.712326503099995      4.228879892199989
Si      9.992054297600012     10.366360281299983     13.953232865799983
Si      9.999546249200025      9.847004791399996      4.266514804199995
O       2.705593222000005      9.676700820199979      2.103056770900001
O       0.296743650200025      7.261028852999992     12.563713778099974
O      10.588939112300015      8.086074473700009      1.778010916399982
O       2.203049423500004     12.162357563299985      1.369105060799989
O      10.852940250300017     10.250565883399997      0.369962186099995
Si      1.701783221600017      8.439522728999995      2.116150139799991
O       0.558411048500021      8.669150430300000      1.030646399499985
Si     14.321213070800013      9.681863666500002      0.655902258399998
Si     11.400136636400021      9.495912658900004      1.689822580199995
O      12.997938405900033      9.346555269799998      1.528381757699990
Si     13.889399814300010      7.853900081600011     13.246838385699984
Si      0.660452718400012     12.591987494399989      1.130741104099987
O      14.741454940400015     11.232310460200004      0.871025203099996
O      14.080183815100007      9.242011879800012     14.065750542000004
O      11.086379458600021     10.241466096900005      3.112310811499978
O       0.883237759800019      8.351337461200018      3.504056283399987
O      10.938897441500016     10.242833035899997     12.649083517599971
O      13.325304018000011      6.600624849000006     14.076544542699995
O       0.135394842800024     12.331659317300012     12.406372534199980
O       0.544722251300015     13.497005329299999     14.733818782899977
O      12.760512835000025      8.267966183500006     12.170416120899986
O       0.142056733400012     13.414621424599996      2.444739754399996
Si      0.621531587000020     13.693976693299998     13.118509662199992
Si      3.773105897800011     13.921143840400001     12.796904142699976
O      10.006608251600012      5.929206410099996      3.272962637599993
O       8.601088345600017     14.078468631499998      0.367023909299978
O       5.361344322300011      2.874799070700007     12.396129207199978
O       8.603537677300013      3.690495327400000      3.446384165399990
O       4.202246965300021      0.525402823199996     12.913487605199977
O       4.283035237800020      5.116388832700003      1.705563639699995
O       7.465952241900009      2.436022196499982     13.665488288199985
O       5.775439521600015      4.195627319300006     14.659049807299983
O       4.790645204100005      2.522583865199981      1.454329032899986
Si      4.480642020900020      3.917433184399989      0.637167735799992
Si      6.430602766900021      3.596348819799994     13.318369994499983
Si      5.783140098700014      1.580397228400016      2.365997777599991
O       5.030069686700011      0.293982701099991      3.019984314399998
O       7.023819483800012      0.957463007999992      1.527863790299988
Si      9.045947358600023      2.420464565499997     13.917758010899988
O       9.270360866300015      1.703577915999987      0.382473687199980
Si      8.548793559800009      0.519212134700004      1.197108283499992
O       6.364401036400002      2.455406078399977      3.610429414199992
O       3.214934893000016      3.921472893100009     14.549095146199996
O       8.951223745300025      4.855514927900000      1.139613492799996
O       9.445082055300011      0.378566699699997      2.520169827099996
Si      9.613625288800032      4.543179634900002      2.568041309099994
O       9.593669446700027      3.922215880900001     13.810208109199976
Si      9.781226316900016      5.199437308999990     14.747826819999975
O       7.191791437300004      4.783531843099993     12.566525196399981
O       2.869137537500011      2.699480564299991     12.162004414399991
Si      9.899339949000018      0.837365473300004      3.988215645600000
Si      4.224310177300004      1.842955080500004     11.988816867699985
O       9.766584665200021      1.543246469600001     12.831595687799989
Si      7.741296403700019      2.743634935099997      4.407659998399978
O       2.159220311700012     13.909726158500000     12.659867785399989
Si     14.758528219600027     14.470140503300005      3.645461040999995
Si     11.957210690800016      3.066495265899993      3.412418346400002
Si      2.263106831000017      3.765362405200000     13.224539362899986
Si     14.596535117100021      2.861196135399987     14.696502661099995
O      12.173842705000018      4.358407739000007     12.859971546799985
Si     14.698118300800013      2.379044857099993      2.610912288999981
O      14.491865223000007      4.675605276200006     12.256239579799992
O      13.173268984800007     14.328394672800002      3.942703019999990
O       0.131099433400018      3.773558957499990      3.347906397400003
O       1.963270310000027      5.180412924000001     12.409272268199983
O      13.575938283600021      1.766325226899993     14.073675006799991
Si     12.674244104900012      5.132194677099987     14.223080067699987
O      14.599102786700021     14.895879699300012     12.581924245599987
O      11.967037763100031      0.288836036099984     12.320650760299985
O      10.999912030200028      3.774239491300002      2.354539774799993
Si     13.387411887500022      1.024490041500000     12.638695495299991
O      11.340799052800016      5.357253348999990      0.124808451999979
O       0.891813138700029      3.106004844199992     13.730628923199998
O      13.745844717200026      4.198979515999998      0.039174580299989
O      13.089770882100012      2.274907383299988      2.607168035199996
O      11.008396875800017      2.019994176999988      4.184807242100007
O       0.291321329500016      1.025715660699992      3.273070819599985
O       0.299216561000020      2.364032993200003      1.116943817099993
O      12.705909279400013      4.170278190300009      4.352793524599993
O       6.370641955800009      8.093605713299993      6.358469704200001
Si      5.227378216000013      9.293324081500009      6.326252268600000
O       4.955037964100022      9.839602681499988      7.844452571599993
Si      7.474500000000000      7.474500000000000      7.474500000000002
O       3.872854328900016      8.684883849599984      5.667860107999998
O       4.468414391000004      8.304653804600019      9.928354508999989
Si      5.218624409700007      6.913656969400003      9.625899271399975
O       6.519994536800026      7.344367495800000      8.760593496699995
Si      4.429320544900025      9.835709439400002      9.391872254099981
O       5.527513636800007     10.580799318099984      5.354825672099995
O       5.280521515300009     10.894871582199983     10.321561019899987
O       8.599863990300010      8.592812906600003      7.330915771599996
Si      3.357731593999998      7.197342360499992      5.321985015699978
O       9.586396563800008     12.259378943800000     10.086567780599973
Si      8.513313648400000     13.275800620299998     10.786166009799997
O       9.433334847000019     10.829894339099997      8.006114489899996
Si      9.908533099200016      9.496709826299993      7.239189471199987
O       7.213791154500007     12.494427452899988     11.418734708299988
Si      5.664251777700018     11.918076685099990     11.534216944499990
O       9.599502938400024     13.587297651499997      7.848554482199991
O       2.857128614200015     10.169037265599995      9.495418299499976
O       4.607906344600033     13.168537852300002     11.596543220499983
O       5.769683265400003      6.264316423400007     10.987076640099977
O       4.952538459200015     13.168589648899996      4.850181450999994
Si     10.082169031100017     12.185930830499982      8.547203977299988
O      10.417782451200029     10.068049965200011      5.796465938099995
O       1.866052994100017     12.242025540799990      8.428888105200002
O       1.769597401800020      7.013824518299993      5.432772235699992
O      11.667679108000012     11.995200821199994      8.259437367899997
Si      1.482198151700018     10.791802584999981      8.959526830399996
O      14.587166414400027      8.496383442600008      5.843036662299993
Si     12.759332800100012     12.073031342999988      7.055214251699997
O       0.874740602100018      9.998883639099983      7.681004783999984
Si     14.402465520700018      9.498173473499982      7.092396884800002
O      13.421734732600022     10.684609229199975      6.601714473599992
O      11.667998070200010      9.263600988200006     10.173817982500003
O       0.392583337700024     10.923315673499996     10.151921304799979
O      13.661798696800016      8.836705532900002      8.352160850599988
Si     12.242646026800021      8.371038382099988      8.955011914999979
O      11.102261970500017      8.590503396199994      7.838360437299982
O      12.097710680000027     12.750168694599996      5.764809008499992
O      12.582407051700024      6.854415368899987      9.413868072599987
Si     14.343035906300024     11.794169531400001     11.085840554099997
O      13.920392455600023     12.999047379099991      7.670190026499990
O      13.738682205400028     13.065277883100000     10.274127594399980
Si      0.394563359600031      7.526362111699986      4.794194674699993
O      13.173286621800017     10.839747543799996     11.577964050999986
Si     12.100684182900018      9.665258508399987     11.678207250899989
Si      1.911625146700018     13.816344809399990      8.495208833299994
O       8.419344255000022      6.090294664499996      7.687118728999994
O       3.868841628800005      6.342441336400007      6.527298473899991
O       4.293987184500016      5.768128672299993      8.926250456499982
O       2.976305445599999     14.906911723800004      4.533912328699978
O       7.859366551300020     14.233396090699982      9.655886960399977
Si      7.256086297900016      6.015343763999990     11.541258028000000
O       7.344637176300012     14.736581561299991      7.089920555299987
O       5.034665956000005     14.902379629100002      8.248739461699984
Si      5.935579127400016      0.564440631500001      7.070449866599997
Si      8.470105247100022     14.706760851400004      8.235200425499988
O       7.348997007900007      3.919065173099994      8.572813702499978
Si      4.193483881700005      5.112310010500002      7.440080035899986
Si      6.687612246300008      3.523052222499994      7.167823073699987
O       6.025966069000019      2.112993531299997      7.440763680899989
O       5.634474915800011      4.682387438000006      6.910879184899990
O       7.602399195600007      3.446340786499998      5.846369987699997
Si      8.526389887300020      4.949977910500006      8.906722019299979
O       8.281180727100002      5.682755825100005     10.330068543799991
Si      3.933896129700015      0.596720257499995      9.223153575399994
O       4.537579585000040      1.302945214700002     10.511851201000001
O       8.940348649300018      1.294003225599988      8.411171340900001
O       5.282082520700023      0.604529904499985      5.613276629999984
O       9.760480440900020      3.859895402699984      9.081930357799997
O       3.216971822100001      3.874448951899981      7.170581634199987
O       2.969982343600011     14.319136575900002      9.589291942399994
O       9.511921440100013     14.236760818899993     11.660828268699978
O       3.035144460300003      1.701263457200004      8.497599711899991
Si      4.568330114800037     14.688073179500003      4.464289587999983
O       8.537029110600017      1.360942356399991      4.685469479999981
Si     10.099662519200008      2.251896255099996      9.027345197899985
O      13.428647681300024      2.280337057899993     11.588091420299998
O      14.421378539700012      6.258008279900000      4.351549458199994
Si     14.267078129100023      4.644462600599996      4.459936380199990
O      13.008216191600020      0.282678478099988      8.826343890499981
O      10.514448855500016      1.528940385600003     10.419544720099983
O      13.669920085000026      2.438779164399997      7.265026046499985
O      13.995079627100017      5.095234203400004      8.018302292900003
O      14.916875747100031      4.192997657300007      5.846684317499985
Si      0.572214714400027      5.829098844999983     11.835936618899993
O       0.133576397100026      6.023362834299991     10.255817438499991
Si     14.576474868100018      3.752066730899993      7.341813231700000
O      10.596248622200033     14.486839448200000      4.614697673999987
Si      2.263955703600026      2.611172073299981      7.449228535399995
O       0.553586810800019     14.326711475100002      5.092960281099993
Si     12.616259942500035      1.285766016100003      7.596799371200004
O       2.300934773800037     14.254671166699994      7.005288554699991
O      12.432742169800006      0.378287408499985      6.282567627299994
Si     13.991154905400014     13.960073430299998      8.965382238999993
Si      1.872773777800006      0.122522075599997      5.692246105199999
O       0.546550264500021     14.498953368499999      8.994485236300001
O      12.917544093000018      4.441978101399989     10.250067870999994
Si     13.668239466300022      5.661802598699988      9.485841903899997
O       1.800102942900025      1.691973396200003      6.175415477099993
O       0.957553524800029      3.277239070699986      8.101718332099979
Si     13.206228770400013      3.873193027500004     11.712398113699992
Si     12.093540856300020     14.237153339299997      5.147550434999999
O      11.323229928300016      2.112769796199989      8.008541533300001
Si     10.458698733800011      0.613286879099986     11.763198285699975
