216
14.935 14.935 14.935
 Si         1.2940164856        2.6957879593        2.6450153448
 Si         1.7221996578        1.5154904456        5.4430465545
  O         1.8266184666        2.4936107393        4.1634908604
 Si         4.1243108810        5.9474257322        2.0526301288
 Si         6.1919306905        4.5256700271        3.6978523532
  O         4.7199537725        4.8066153593        3.0588917680
  O         2.4016197046        1.9989112298        1.6602909491
  O         2.5451142236        6.2372002878        2.0745562888
 Si         3.9667271365        1.8519403030        1.2077486472
  O         4.8292812024        1.7388989566        2.5825086397
  O         6.2171860825        5.0650647691        5.2241936239
 Si         6.1993427876        1.5357773216        3.4262276745
  O         5.9674623198        0.6720103280        4.7966967214
  O         6.6269368759        2.9966103642        3.9010507234
  O         1.0794789950        4.2432541279        2.3157989991
 Si         1.0026813592        5.8405191919        2.2595805934
  O         2.4126139387        2.0610219904        6.8400144549
  O         4.4747450312        5.5804507217        0.5181020735
 Si         6.6616016166        4.9551979864        6.7860066359
  O         4.4023184151        0.4971177363        0.4276461785
  O         0.4882878413        6.4759786390        3.6438340151
 Si         6.6048941353        0.1294040763        6.2072347700
  O         4.3246574313        3.0510757103        0.1771553343
  O         0.0040568908        6.3797935892        1.0949328983
  O         0.1572848141        1.3392164772        5.8134304055
  O         4.8029888596        7.2958530203        2.5653186195
  O         7.3943228795        0.9852201336        2.4854675045
  O         7.2361739210        5.0652727410        2.5610131522
  O         7.6372250358        6.2230745401        6.9594225959
  O         7.3973619634        3.5374502144        7.1477401665
  O        14.7116423719        2.1517052875        2.4989742962
  O         7.9750104649        1.0008613185        6.3983018460
 Si        14.1439713866        6.9195051058        4.5121405199
  O        11.8646534475        4.0882033262        5.4681724570
 Si        10.9329499269        2.7705439986        5.2621142289
 Si        13.0567228738        4.6689829562        6.4131240142
  O        11.7870113992        1.3868972944        5.3976138478
  O        10.2112215757        2.6638916847        3.8293941918
  O        14.0193621747        5.7320785378        5.6294324161
  O         9.8799583845        4.4630940472        2.0702806481
 Si        10.4399557309        2.9566557757        2.2642074105
  O        12.0340956916        2.7355994464        1.9920577061
 Si         8.7604287612        5.5840076128        2.3589700995
 Si        13.3995312620        1.9409253909        1.5897568626
  O         9.5373022749        1.9953745984        1.3262528751
  O         9.7975536882        2.8974642461        6.3788509589
  O         9.0301791372        6.6386646344        1.1714226793
 Si         8.5488295325        0.7088684973        1.3797106175
  O         8.9496354570        6.3946927490        3.7385536617
  O        12.7125525822        6.8067374699        3.7378034360
  O        13.1856799526        0.3483124051        1.6662679413
 Si        13.6522497360        6.9432992762        0.2675844560
  O        13.7019007951        3.2950919683        6.9544119295
 Si         8.5192970713        2.3458943146        7.1700500229
 Si        14.2796089943        1.8083507626        7.1342975788
  O        13.7665056221        2.4045073640        0.0857416668
  O        12.3804319059        7.3059711283        1.2350096203
  O         2.3411359140       15.0359809075        4.9958149816
 Si         2.4986113774       10.2642558309        0.7869437365
  O         6.6427578026        8.6219273341        6.3031722976
 Si         2.3823436876       13.4306737092        4.9704916395
  O         3.8962265613       12.9504203763        5.3036549023
 Si         1.7946658059       12.9781953713        1.9636559367
  O         5.9055029377        9.3911081611        1.7388121867
  O         5.4792360026       10.9719460471        6.1335557321
  O         3.2614754910        9.4375098732        1.9821102449
 Si         4.6664901512        8.8908073180        2.6249283456
  O         4.9809919804        9.2956186092        4.1556949890
 Si         5.4090630191       12.3827664956        5.3483826977
 Si         5.3460494654        9.4044948696        5.7319021392
  O         1.7547875414       12.9510603991        3.5672641167
  O         6.4681821302       13.4473524549        5.9818841765
  O         5.8141756314       12.0335769317        3.8267110874
 Si         6.8485972162       12.5881345215        2.7398829623
  O         5.9701675898       13.6853648369        1.9076623835
  O         1.6575843717       11.4700245465        1.4290577031
  O         3.2693548541       13.5083366266        1.5759985062
  O         4.0638461788        8.7859315008        6.4601661507
  O         1.4082061752       12.7754564568        6.0630811976
 Si         4.6856951799       13.9166254282        0.9151786307
  O         0.5706911811       13.8550806898        1.3298775811
  O         1.9900706875       10.3762706163        6.9666258640
  O         7.4677766291       11.3594706294        1.9055522245
 Si         1.6145967589       11.8812795450        7.3765942017
 Si         7.4536629330        9.7496182962        1.9834566914
  O        13.2727309705       12.7216306347        2.0758428869
  O         8.3822470261        9.2067785121        0.8088946314
  O        13.2793990437       11.3616563144        4.2386477360
  O        12.7688724265        9.2903008019        2.9883453080
  O        11.4516682038       14.0217327619        6.7093400119
 Si         7.9738765033        7.7899327180        6.7415761507
 Si         9.1473554008        7.9856924022        3.9542905598
 Si        13.2285089414        9.7460515880        4.4759830418
  O        10.1109498431       14.5248751247        4.4739795471
  O         8.0490109037        9.0306582893        3.3283438970
  O        12.6254803943       13.9259990356        4.3843514882
 Si        12.0485237495        7.8720354933        2.7120835082
  O        10.5360758639        8.2163784958        3.1512285671
 Si         8.8131049798        7.8245425496        0.1278103637
 Si        13.8733425826       13.9070027987        1.1748857505
  O        12.2849364276        9.6948383307        5.7950969781
  O         8.1629900225       13.1329679015        3.5040171177
  O        14.3408433811        8.5432998408        4.8107042131
 Si        11.5113371698       14.7212729827        5.2506576115
 Si        12.5008553628       12.5720702350        3.4802236525
  O        10.8742687272       12.4511049634        3.1569533053
  O         9.5379660539       14.4304632839        1.8360921833
  O         9.0508431085        8.1285832157        5.5617342511
 Si         9.6881585442       13.5880960484        3.2214223148
 Si        12.4739735645        9.3371411679        7.3588138581
 Si         3.2169870953        2.8971114499       10.6445695838
 Si         1.8371559222        5.0089332902       12.5508339841
  O         2.2366287124        3.9017719328       11.4369268004
  O         5.0651417548        5.7150207993       10.4544221203
  O         4.2305459507        2.1640856814       11.6870505029
  O         2.5636266905        6.4176930382       12.2666118974
  O         2.4151367815        1.8265829118        9.7821732906
 Si         5.8472459559        2.0212296205       11.5036114347
 Si         1.6625421722        6.7974423030        8.7124539535
  O         4.9634316555        4.7942145772       13.0358152711
  O         6.1404495959        1.1356079894       10.1880735225
 Si         4.4043148741        5.1425960769        9.0777068513
 Si         5.8630745374        5.0086945822       11.6951378270
  O         2.4940021653        4.4876406348       13.9414960012
  O         2.9904728265        5.8813135218        8.7882412858
  O         4.0615973935        3.6235757207        9.4709043499
  O         6.5580372311        1.3292935309       12.7791319922
  O         6.3959374090        3.5334490974       11.2865883993
 Si         1.8866354468        1.4937866016        8.3046608527
 Si         4.0771218281        4.4664999346       14.3598884626
  O         0.2257527966        6.1358380307        8.3739780624
  O         5.3929620013        5.1461264716        7.7989765942
  O         0.2650322602        5.3955070724       12.5184757022
  O         0.3510428546        1.9144628159        8.3832960208
  O         7.1260966359        5.9623227280       11.9496025937
  O         5.9826503969        0.3265555269        7.7066719096
 Si         7.4801579610        7.4112460760       12.5149690464
  O         2.1593122801       -0.0892503606        8.2115381549
  O         1.4196261662        7.4845974279       10.1446473036
 Si        13.6019460338        5.1245355933       12.7134461907
  O        13.6080810250        3.5159036805       12.6849975233
 Si        13.2145405056        2.2227877394       13.5217212134
  O        11.6005701447        2.1668151623       13.4521179772
 Si        13.6495761470        6.7450915839        8.3337384889
  O         9.1265182322        1.9726581701        8.6496603788
  O        10.7031691395        1.8162978266       10.9534655854
 Si        10.0441880978        1.0737792852        9.6583907944
 Si        10.7335014857        1.2216081634       12.4765523264
  O        12.5190523630        5.6559619173       11.6116704899
  O        13.7670062878        0.8073741784       12.9351170406
  O        13.1971318764        5.8159316664       14.1243133383
  O         9.2095774534        1.2419169803       12.9475833533
 Si        11.9533410718        6.9945633241       10.8262300356
 Si         7.8435114343        0.4610781749       13.2654652345
  O        13.1826841172        7.2239609637        9.8058015034
  O        12.6899800139        5.5671368461        7.7257537932
  O        11.2742195722        0.3350782115        8.9607265655
  O        13.3551992348        0.5832690563        7.5455199557
  O         7.6337310248        7.3046102743       14.1067721720
  O        10.6184462006        7.2176466064        9.8688928202
  O         7.8360475759        0.3336964355       14.8915458041
 Si         5.9424072610       14.7614223435        9.2547658168
  O         3.6593510619       10.8000796195       14.7583034285
  O         1.9014724256        7.8760320820        7.5524949697
 Si         2.0328906622        7.7792759050       11.6010761677
  O         4.4928526752       14.1149350510        9.3850836520
 Si         2.9718813111       13.7780399786        9.0909298109
  O         3.5653850674        9.3761558791        8.8841693208
  O         5.7142430599       10.8736975009       13.1924867984
  O         3.3263643850        8.7141708390       11.4469954905
  O         3.5691107475       12.3638313555       12.6100807445
 Si         2.3836755502       12.3415358849       11.5343270746
 Si         4.4981761604       11.7487541651       13.7755082357
  O         2.5702047670       11.0330957320       10.6177307933
 Si         3.6582957093        9.8778204716       10.3873733493
  O         2.3201693377       13.6056094542       10.5487973451
 Si         6.1823414808       10.0446129574       11.8951278138
  O         5.1483064255       10.3665317413       10.7045735581
  O         0.9073361048        8.5374186974       12.4480052860
  O         0.9783855887       12.2799367498       12.2764287150
  O         6.3056157124        8.4639876220       12.1906259819
  O         2.8825049710       12.4328198370        8.2178189858
  O         6.9812413385       13.6192455863        9.8013228989
 Si         0.2184191713        9.2638680932       13.7091207446
  O         1.4091942551        9.5322228525       14.7806020528
  O         5.0603970324       13.0117799297       14.5861437604
  O         0.2562229913       11.9508440936        8.2185026798
 Si         2.8778359539        9.1354600269        7.4543058125
 Si         9.9679085942        8.4678811130        9.0003057613
  O        14.3347966015       10.5403046527       13.0983075424
 Si        12.2760919322       14.4500902601        8.0360465149
  O         7.8607637519       14.0209053097       12.3726321680
  O         9.2044704139       12.3209678970       10.7825724246
  O        14.0989562414        8.2907758147       14.4356711963
  O        14.0451146294       11.3598562335       10.4836138937
  O         9.1279239370       14.8646280502       10.2861499089
  O        13.3542604063       13.7702820975       14.5951058307
 Si        13.7656092110       11.7924185043        8.9411973001
  O        11.0448647112        8.8751149419        7.8890098615
  O        12.9467355057       10.6171343134        8.2121495240
  O        10.1266801242        8.2075295030       14.1942306185
  O         9.6340807504        9.7929161469        9.8741266801
 Si        14.4034756048       11.7676641318       12.0186673373
  O         7.6174943413       10.5379254190       11.4474317963
 Si        10.2233855088        8.6076162300       12.6378572766
  O        11.6166322012        8.0514183677       12.0235560074
  O        12.9425986182       13.1889815838        8.7937818587
  O        11.4505265824       14.6852853123       12.6932372003
 Si        12.9932800000       14.2990921441       13.1080003911
 Si         9.1568989490       10.7318935321       11.0949667451
  O         8.9218822350        7.8888294695       11.9459059823
  O         8.6154390010        8.1408271368        8.1886405102
 Si         8.2627145499       13.6479811274       10.8277464317
  O        13.4349631156       13.0452833867       12.2091276839
  O        10.0464023748       10.2036032945       12.3600098447
  O        13.5309895575        8.1117132132        7.4679757142
