216
14.808 14.808 14.808
  O         4.5332461914        5.5167844544        4.2474040883
 Si         4.3529791773        4.9730704329        2.7566828863
  O         2.9350431934        6.3377890060        6.0158321943
  O         3.9425281327        2.0740439744        5.0373848692
 Si         0.6812252402        2.2351000208        6.2919284953
  O         4.8606313327        3.4533075009        2.7976848353
  O         2.7844749919        4.8602562879        2.3799297530
  O         5.1817021820        5.9241139192        1.7322114642
 Si         1.7286045809        4.6275409504        1.1788499133
 Si         4.8525557450        2.1217269616        3.7026014914
  O         4.2912515774        0.9898781208        2.7112260277
  O         6.3509616772        1.9672031616        4.2720627893
 Si         4.3275948733        5.5711306130        5.8363301798
 Si         3.7081846134        2.6240104978        6.5407344466
  O         4.2786186434        4.1305464192        6.5723550359
  O         5.5977547894        6.3407889953        6.4156051475
  O         2.1342491199        2.6291544853        6.8231465380
 Si         3.0977481674        0.2355359223        1.9409012474
 Si         0.3855927129        0.5867386585        3.5781689783
  O         2.8141233554        0.7583825992        0.4140624910
  O         0.3389775154        6.2588610304        6.0912990836
  O         0.7388936623        1.3882916064        4.9287900444
 Si         1.6003992120        7.1940402274        5.7607892531
  O         0.2262722378        4.4526208680        1.7360038400
  O         2.0523221142        3.2897799674        0.3325223057
 Si         6.2694679953        7.1174098008        1.5544574045
 Si         6.7915079712        6.8735719820        7.3358669812
  O         1.7210822111        0.4935485429        2.7145145854
  O        -0.0073422574        1.3074498917        7.4207346310
  O         7.0019330494        2.4696036100       -0.0727936285
  O         1.8989869305        5.9232207687        0.2329573758
  O        14.7229290233        3.6086759365        6.0056777433
  O         7.5528393888        6.7511736449        2.4662678490
  O         8.0550958325        1.9767962876        2.3031547985
 Si         7.7916425931        1.4535779367        3.7862545286
  O        14.1448431668        5.2766766597        4.0286112162
 Si        14.1841441195        5.0696548321        5.6207481034
  O        13.9946442855        1.3119229987        2.8031741415
  O        10.3748625029        5.7273368724        5.6147645328
 Si        13.6920357907        4.7761070417        2.5807510291
  O        12.7724995670        5.8418198396        1.8061639394
  O        12.7294762664        3.5219046785        2.8771451229
 Si        11.2400120149        4.6374230258        6.4046565219
 Si        10.5223948284        1.7917717960        5.1854028081
  O         8.9984096190        1.9989172100        4.6940684111
  O        11.1055825604        3.1726735115        5.7576547433
 Si        12.5192764579        1.9374581156        2.7692856573
  O        11.5194771495        1.4009143976        3.9437089500
  O        12.7516884381        5.1783452987        6.3327788860
  O        11.9348106293        1.6368955293        1.3045254312
 Si        11.3959556748        6.1324041825        1.0218262433
  O        10.1975175814        6.2414359473        2.1184242334
 Si         8.3017212985        2.0527795011        0.7360556720
  O        10.4377983034        0.6513309954        6.3432864869
 Si         9.5070439099        7.0683508782        5.7818527013
  O         8.2269210560        6.6587186834        6.6612755625
  O         8.7938875083        0.6011479726        0.2531515248
 Si         9.0712703500        7.2486890837        2.7069906976
  O         9.3692019211        3.2047668459        0.4208419117
  O        11.5967380954        7.4745745558        0.1709781368
  O        11.0986370449        5.0054949978       -0.0916421397
  O         6.9026289722        7.2536959987        0.0649166005
  O         6.6581475975        8.4755030231        7.4903821719
 Si         5.5132376800        9.5691995740        7.2806345491
  O         1.5743209681        7.8831624962        4.2827998910
  O         5.6768801125       10.3690334590        5.9173751868
 Si         3.9281055293       12.4706988100        0.7749970247
  O         3.5412019411       13.4869657405        1.9731660635
 Si         1.7820062936        9.1983054422        3.3590630419
 Si         4.6689829856        9.8338569025        2.2638853633
  O         5.5944885737        8.5620869137        1.8850335774
  O         1.7281682538       10.5319735678        4.2816173599
  O         5.3521264389       10.6261375939        3.4718613824
 Si         2.2966049028       11.5412429017        5.4185783284
 Si         5.2945173173       11.4818615645        4.8280210504
  O         3.7837602160       12.0858699808        5.0182776591
  O         3.2223824835        9.2119844802        2.6331283737
  O         4.5280669189       11.0153232669        1.1526881532
  O         6.3999619197       12.6577995818        4.8660382371
  O         1.1596228251       12.6624023838        5.6697810614
  O         0.6479199767        9.2223901661        2.2112681552
  O         2.4764516255       10.7965019456        6.8244496455
  O         1.5617568399        8.3869668716        6.8303196138
  O         2.5362856709       12.1723788997        0.0675961685
  O         4.0997888902        8.7969631447        7.3218913032
  O         0.0848538412       11.4473417194        0.8922680621
 Si        11.4765162281        9.3775068545        6.6116836804
  O        11.0189344192       10.6352060945        7.5039583415
  O         9.1411952983        7.4922526840        4.2840991060
 Si         9.6890087551       14.2570694126        7.1717375892
 Si        12.4651904935       10.9593324733        4.0767638872
 Si         7.8576682791       13.3434997534        4.7794658677
  O        14.6447985952       13.9112984377        3.8667033522
  O         7.7353086752       14.6622860684        3.8706863929
  O        10.2843929455        8.2975998469        6.4930957856
  O         7.9875713779        9.7061487790        0.0790225426
 Si        14.4651639607       13.0785636161        5.2215623057
  O         8.8797577350       12.4248635457        3.9580548078
  O        13.2429912361       10.3666436488        2.8000453665
 Si        14.2496008993       10.1045473479        1.5703904830
  O        11.9292214506        9.8078210963        5.1042587012
 Si         9.8380884852       14.1859775738        0.2850998324
  O        11.2751572660       11.8498290451        3.4488963157
  O         9.2804161973       11.2198532522        1.7406487542
 Si         9.9027058790       12.3002755573        2.7320311439
  O        10.0474697385       13.6395530813        1.8029926587
 Si         9.3473507767        9.8529191734        0.9419128110
  O        13.4942016132       11.8415716958        4.9408106370
  O        13.3924032414        9.3752520315        0.4069766261
  O         9.3745872229        8.6377418019        1.9784260356
  O        10.7530901032        9.8877282874        0.1501963600
  O        13.7361074930       13.9946058591        6.3305608315
  O         8.4783569096       13.6649155062        6.2481663691
 Si         2.8714243041        2.8410675314       11.3749294873
  O         4.1091112913        3.8695880019       11.4349267668
  O         3.1278005960        1.8085217228       10.1942007686
 Si         4.3151129645        1.2484023016        9.2683252682
  O         1.5677867784        3.6166546345       10.8620776809
 Si         4.8092278574        5.0901931981       12.2304172914
  O         5.9300420403        1.7304275417       12.4987143009
 Si         2.0870738687        6.2050798619       13.4655003097
  O         5.8343253367        4.3625638596       13.2556360145
  O         5.6945817220        1.7953575035        9.8712675861
  O         0.9906873167        5.2620928848       12.7529385035
  O         3.6219534609        5.9115197410       12.9864224651
  O         5.6615977844        6.0021946201       11.2009775358
 Si         5.8298162009        2.8054225261       13.7300626174
  O         2.6314377421        2.1417838876       12.8309188142
 Si         6.9746343375        6.3133282680       10.3086325560
  O         6.6692384635        6.0833427419        8.7423974365
 Si         6.7198057139        1.9102233902       11.0840568972
 Si         0.3631234710        4.1978179842       11.7317217625
  O         4.3448779591        1.7206617833        7.7250890448
  O         0.4951600541        0.3363571639       12.1774935472
  O         4.4799003563        2.6210674488       14.5605656631
 Si         2.9561509788        2.1649148386       14.4251709583
  O         7.3383071467        3.3732664023       11.2714030460
  O        14.4827140404        2.9467428635       12.4856763133
  O         8.3117867394        5.5895842131       10.8613690028
  O         7.9699517505        0.9951858047       10.7034955371
  O        14.1803672477        4.9207014857       10.7110544767
  O        11.3510586077        2.5491833451       13.7326037167
 Si         8.7577103794        4.1166471520       11.2914649027
  O         9.6307217004        3.4515999191       10.1120476700
 Si        12.9323746388        5.8668513636       10.4584333373
  O         9.5294777372        4.1085750656       12.7081111335
 Si        14.0747389732        1.3786545971       12.3775201446
  O        12.0127467546        2.7120245832        9.2183267894
 Si        10.9758501797        3.9250302333        9.3706085840
  O        11.5914813143        5.0116392366       10.3674017575
  O        13.0932196910        1.1611807657       11.1088550931
 Si        12.1436970757        1.2230016911        9.8143236850
  O        13.4138325506        1.0606419644       13.8194311394
 Si        10.3307752147        3.7542636598       14.0703938004
  O        12.6686924953        0.3340624690        8.5714277375
  O        12.7514599423        6.9053325661       11.6759066810
  O        13.0697719214        6.6726876234        9.0678805611
  O        10.6967293884        4.5358399399        7.9169418924
 Si        11.9995961934        1.3005398620       14.5348710628
  O        10.6972679673        0.7434380646       10.2961955340
 Si         9.2231023139        0.1266017675       10.2222711390
  O        11.1905522855       -0.0832703520       14.4037788680
  O         4.1071186392       14.4684774673        9.4731934467
 Si         1.0923956154       11.6661816119       14.4337411408
  O         1.7290028653        7.7290664671       13.1598614894
  O         5.5157798124       10.6931016068        8.3986475708
  O         4.5235320122       13.9058566800       12.0830900921
 Si         5.4392409144       13.0739576792       13.1263188271
  O         4.4479051798       12.1055548599       10.2188644782
  O         2.1647384206       13.3351677262       11.1116565330
  O         5.1784731557       11.5101416647       12.9167012766
 Si         4.9946244690        9.9957152846       12.4403277261
 Si         3.7511712397       13.4762187308       10.7147670756
  O         3.4602669836        9.5510635750       12.5002162942
  O         5.5938157201        9.9375577498       10.9445426560
 Si         1.8965555174        9.2502214935       12.7016434017
  O         1.0723283247        9.5426181781       11.3583734240
 Si         0.8619557058        9.7484154784        9.7932742667
  O         5.8441792613        9.0512795262       13.4091501211
  O         2.2930767504        9.5455419677        9.0832700503
 Si         5.7178400277       11.1599497832        9.8966589368
  O         1.2412791472       10.1922244635       13.8162316557
 Si         0.7520802402       13.5621319424       11.9302108544
  O         0.6565112178       12.7520758576       13.3265293576
  O         6.9870241454       13.4165578703       12.8439014506
  O         7.2375907793       11.7623046764        9.9619713617
 Si         7.2567919773        8.5699146401       13.9912017459
  O         4.9451045372       13.3237337211       14.6433588082
 Si         2.6126020162        9.3673306339        7.5249543170
  O         0.2445225841       11.1836458467        9.4457555416
  O        14.2974217498       12.9960395541       11.0889280061
 Si        14.1098548823       12.4714749115        9.5774786302
  O        12.2611894429        8.9555552051       10.1654195188
 Si        11.9923681036        8.9547993362       14.5211503618
  O         9.8844690214       11.9169522727        9.5505962793
 Si        13.9905880128       14.7542283157        7.7283294784
  O        10.2745876128        7.7365683988       11.3527124216
 Si         8.7143816049       11.2645233248       10.4702762059
  O         9.2868260561       13.0789742855       14.0651100952
 Si         8.7701832243        8.3457688708       11.2831833316
  O        12.5662394674       12.0970984064        9.1964560300
  O         8.9736409175        9.7026886323       10.4487632960
 Si        13.1428425304        8.2827434982        8.9493944530
  O         9.0415728344       14.6381573796        8.6270775859
  O        12.6749516073        8.7210371399        7.4799745030
 Si        11.8060230885        8.2160688565       11.5548356301
  O        14.7272674941       13.6469825054        8.6409402507
  O         9.2129107228       13.8326568007       11.4177732489
  O         7.4925084249        7.8148403585       10.4492902631
  O         8.3074101303        8.2388714166       12.8278381041
 Si        11.1054476878       11.9224927326        8.4729671574
  O        12.0873524273        9.0528835376       12.9042210625
  O        10.8434893486       13.1708073045        7.4825051507
 Si         8.5418756853       13.0163059838       12.6435433795
  O         8.7179900693       11.5209427373       12.0807975274
  O        14.6735778652        8.6451042516        9.2115167255
