216
14.906 14.906 14.906
  O         3.4665025790        3.0756698020        5.1399748517
 Si         1.8832272045        3.1319356651        4.7772586505
 Si         4.9274701908        3.2053044377        4.4325452224
  O         4.9625459769        4.4685243779        3.4118257123
 Si         5.6686228060        5.9022446997        3.6483873010
  O         5.3027770212        1.8993520619        3.5640935482
  O         6.0582476360        3.4025739680        5.5782839062
  O         1.7379506769        4.1547420765        3.5552288196
  O         1.4806608653        1.7391132823        4.1425227121
  O         1.2651268787        3.8922540113        0.9750140638
  O         3.2290793760        5.7874855226        6.7074379820
  O         4.8876464146        6.6988390747        4.8067097167
 Si         0.7440761627        4.5129795476        2.3521772013
  O         0.8211712771        3.4823657476        5.9675523593
  O         0.6699198374        6.1304789664        2.4126098561
  O         5.6324529085        6.7995179518        2.3087245941
 Si         6.1543276727        0.5410549203        3.8106666119
 Si         3.4691420954        6.8899494700        5.5457900586
  O         7.1306766464        5.5477689565        4.2273736780
  O         2.3152661217        6.7070211684        4.4619065533
 Si         1.2655292570        7.2669700309        3.3849510988
 Si         1.3492956135        0.2586202432        3.6078663020
 Si         6.3303909108        3.5515443712        7.1620907363
  O         1.1447730296        0.2410711568        2.0045295751
 Si         1.5250885564        0.0669209761        0.4410903887
  O         6.6996610761        1.1470012820        0.0741732818
  O         7.5212948150        0.8936796403        4.6135094013
  O        12.4243256171        0.7416496860        0.9119849191
 Si        14.3955740720        4.3391869000        6.4152430490
  O         9.8524828657        4.2239640177        1.6759017257
  O        11.7400727425        3.5584991500        3.5546324773
 Si         8.5875050040        6.0572991378        4.6938952592
  O         9.6788012647        5.0628223264        4.0544450803
 Si        10.1638215996        3.7866724524        3.2083554651
  O         9.4376168325        2.4094251727        3.6341401878
  O        14.1520121612        3.9763772197        2.6444078750
  O        13.6678289193        4.8124642635        5.0543799394
  O        12.4194640284        5.9637261840        3.0603520378
 Si        12.9957556778        4.5678894855        3.6059863177
 Si         9.0828351162        0.9419491044        4.2101196534
  O         9.0256943832        6.0443559997        6.2373452947
  O        12.2565655883        1.4894479685        6.6225617071
  O        13.1880765943        3.6973473717        7.2930934352
 Si        11.7411639762        7.3968110700        3.1383983853
  O        10.0212984556        0.5830901195        5.4707375848
 Si        11.4451500092        0.1971653769        6.1251640313
 Si         9.6730021516        3.7696471532        0.1415169152
  O         8.5364586474        7.6031169598        4.2192706830
  O         6.5584477137       14.7547593044        2.3989564113
  O         2.6781403300       14.3989629114        4.0637477317
 Si         6.5090225079       14.6490827711        0.7839889123
  O         5.2251275976       14.4963554999        4.7244505013
 Si         6.1993356105        7.8998122260        1.2579108085
 Si         4.8186872383        9.3896495795        6.2423918249
  O         1.9165213035        8.3527977254        2.3994401702
 Si         3.8284022188       13.7383755541        4.9696724351
  O         3.4730377137       13.5946538588        6.5379004891
  O         3.9712764818       12.2443253782        4.4750641449
  O         5.5460504732       11.4298681675        2.5533237858
 Si         4.3938339773       10.9978281226        3.6122911003
  O         3.0756589018       10.5965382978        2.7363413733
  O         4.9634609265        9.9390837117        4.7187769290
  O         3.5622446152        8.3572671723        6.2100590959
 Si         1.6973213032        9.9369507825        2.2304719004
 Si         5.6087830928       10.8967817669        1.0125132496
  O         1.2304133664       10.2764808086        0.7259697559
  O         5.3934908123        9.3084310722        1.2515325829
  O         0.4223545102       10.3520778882        3.1486179079
  O         0.5791379694       10.3473176644        5.7198113034
  O         7.0371871307       11.1077554584        0.2548467534
  O         1.0672100301       12.5792442562        6.9504879465
  O         6.1907581771        8.6977664258        6.7905638250
  O         0.1653261209        8.0313720471        4.3028849120
  O         5.0369865980       14.1564159820        0.4936818949
  O         2.5810139933       13.7430814294        0.4094114806
  O         0.0819551852       14.5749998723        4.3892350903
  O         4.4464799712       11.6790679397        0.1564430283
  O         7.5416421166       13.6649199553        0.0002887853
 Si        12.1438972581        9.6974733263        1.4581176040
  O        10.2865148179        7.5280648086        2.4111440243
 Si         8.2403561591       12.2058873635        0.1599994384
  O         8.8512408653       12.3417478281        1.6410398824
  O         9.0990300047        9.8540713674        3.0539044888
  O        13.9245769031       12.4183910318        5.2217195730
  O        13.4143561272       10.3562785300        0.7432013356
  O        12.0103327439        9.3605575060        7.0500799789
  O        11.5969022937        7.8473405748        4.7074045779
  O        10.0157661550       12.3606701096        3.8128779690
  O        12.6682460418        8.3720107466        2.2356358574
  O         7.7738950441        8.0500040824        1.6599634911
 Si        10.2878000935       10.7938192065        3.6070503192
 Si        14.7925809409       11.6569654940        6.3864416957
  O        12.3326684296       14.4125933841        4.9759001197
  O         9.2771294622       14.7395947301        3.0520555064
  O        10.6882161230       10.2648178652        5.0611336315
  O        10.9235096846        9.3627176549        0.4301312416
  O        13.2174618399        9.7887769608        4.7287689186
 Si         9.7730505588       13.3112120130        2.5334885434
 Si        14.7768870718        9.6066347567        4.4719995128
  O        11.5154958337       10.6848867656        2.5604211928
  O        11.0121786822       13.5815933712        1.5762606347
 Si         8.8964078609        8.2759691123        2.8013879446
  O        13.0683658126       13.2487900418        0.0947379886
 Si        13.6307261565       13.7341644121        4.3112639708
 Si        11.8791938710        9.2657778326        5.4425514551
  O        13.3241117358       13.6684278813        2.7117353304
 Si        12.5090018331       14.0675336466        1.3570337273
  O         4.3828716038        3.5752432630       11.6723676903
  O         2.5721035602        5.5430039949       11.7439291626
 Si         3.6563078785        4.6832773988       12.6066648745
  O         6.2096985727        2.0701321872       10.4165263755
 Si         5.3913346600        2.3288128832       11.7810582252
  O         4.7248374338        5.7887933984       13.0865758202
  O         6.4546740862        2.7288304977       12.9295619551
  O         4.5583129413        0.9974176424       12.1787805630
  O         3.5559317050        5.3872575721        9.3615233931
  O         2.9738289017        3.8906967390       13.8425055953
 Si         2.6846198325        6.3270347537       10.3291617181
  O         1.2464120679        6.4449783992        9.6108502513
  O         1.2470510531        1.4172693022        9.7740414570
 Si         5.8315079164        6.9529570781       13.1402405561
 Si         7.0390767940        1.4407738275        9.1777469298
 Si         1.6878741330        3.1482881238       14.5064479919
  O         0.5051440981        3.3823240167       13.4381569271
 Si         4.2284676235        5.4099526225        7.9248269692
  O         6.7080651913        2.1394627326        7.7820449222
  O         5.3751273469        6.5151673784        7.8574036484
  O         0.5784990094        3.8096189474        9.4332187957
 Si         0.2011165562        5.3424540956        9.0524459742
  O         7.2882710824        6.2934070132       12.9247016309
  O         4.9066688476        3.9779153216        7.7781698741
  O         1.9705275849        1.5576908664       14.8120673956
  O         5.9573135587        7.4523120853       14.6556545355
 Si         7.5041933530        2.0174925629       13.9141269467
 Si        14.8885285572        2.3687278525        9.8583158727
  O         7.8463674771        7.2042004907        8.2018474791
  O        14.3222496017        2.2460175079       11.3571423819
 Si        11.8964427581        1.5591003654       14.5096658234
  O         9.6955999676        5.6322829491        8.8643501118
  O        13.7520093352        5.5615712287        9.8584896259
  O        13.2485494287        4.3878245719       12.2583704636
  O         8.6299953823        1.6623453071        9.4437430535
 Si        14.0204941077        3.0463032999       12.7133088846
 Si        13.1097615712        5.6929950026       11.3184789531
  O        13.1671863351        2.1514523830       13.7331940727
  O         9.8534880510        3.7935954378       10.5988354080
 Si        10.0276113142        2.3284032980        9.9505111306
  O        11.1529196475        2.4797672150        8.7809202097
 Si        10.1181343540        5.3743766849       10.4184883196
  O        11.5848097215        5.8748590837       10.8526952208
  O        10.5218239695        1.3956701735       11.1726891404
 Si         8.8880963398        6.1662958567       13.1010308762
  O         8.5339301856        1.2471296342       12.9392188052
  O        13.6747195411        1.8232230831        8.9337143230
  O         9.2598213092        6.1382885749       11.5323060183
  O        11.0211962960        0.5603721593       13.5856708250
 Si         9.9090861037        0.5824933028       12.4269657584
  O        13.8336957904        6.8690341625       12.1723718482
  O         9.5218843738        4.8962359722       13.9027495562
 Si        12.5358152571        2.3687156107        7.9311861141
 Si         8.5389995843        5.8259281854        7.7488564681
  O         8.2865963453        2.9871261852       14.9085025911
  O        10.9400698353        2.8123588176       14.8191967832
  O         9.5280107817        7.3632542470       13.9939126075
  O         7.5228344518        4.5600420214        7.6211447665
  O        14.9231310070        5.4793012826        7.4491128742
  O         6.5528335157       14.8195802103        8.9493788021
 Si         6.3542804571        7.7487104062        8.0936301882
  O         2.4975154700       14.5530832790       11.1952956739
 Si         1.4866375253       14.7623067113        9.9672469816
  O         3.4065168818        7.7761431598       10.4328970125
 Si         3.9717401677       14.4404521300       11.8243725507
  O         5.3946523551        8.1420766505       12.0672122550
  O         3.0147194548       11.9925313427        8.7008777198
  O         5.9548283407        8.3619930797        9.5218352471
  O         3.9053802721       13.4814049691       13.1139174657
  O         2.0762996142       14.3386105893        8.5502435128
  O         4.3928814810       10.1871378975       10.1783302063
 Si         4.7841411827        8.6333691627       10.6067470615
  O         4.9497459200       13.7555856505       10.7687052039
 Si         4.4023364386       11.1696851381        8.8453514390
  O         5.6348690516       12.2384461771        8.8646087597
 Si         6.1462195920       13.4808922209        9.7536900805
 Si         3.9738139246       13.2063625731       14.7009795847
  O         0.3339803221       14.4100388514       14.4038257448
 Si         2.4245346121       13.0764963051        7.6507183953
  O         0.1023632040       14.0038513219       10.2516496076
  O         4.4800763800       10.4341179462        7.4111105343
  O        13.8372124150       11.1775425664        7.6066859092
  O         7.4443658454       13.0958677494       10.5976373498
  O         9.5273529419       13.9904351236       11.9988359274
  O        11.6000300132       11.2638829900       12.0854983784
  O        12.3268069342       10.0193628546        9.6005117515
  O        12.4212480409       13.6649915621        9.8623177339
  O        14.8158967055       11.7087541348       13.8995728977
 Si        11.2729564352       13.2878549506        8.7518161285
 Si        10.0448083341       11.0874943087       12.6295950685
  O        12.0912994892        8.0270460232       13.5795026591
 Si         9.0104685802       13.0141474797       10.8243955815
  O         9.8499032384       13.3437909806        9.5023349129
  O        13.6587344191       13.6640686820       12.4298692202
 Si        13.6981188298       13.3178971600       10.8365989133
  O        14.6421496795        8.9264375971       13.9032042966
  O         9.1955998792       11.5066102580       11.3438451733
 Si        12.4109045404       10.5611205707        8.0802276579
  O        13.8313544869       11.7204794955       10.7701255688
  O         9.3561888549       11.8438655362       13.9280824783
 Si        12.7212830295       10.6007944636       11.0640079284
  O         9.9411704793        9.5247944221       12.9161073771
 Si        14.2297436473       13.2415142830       13.8941432244
  O        13.4103012525        9.3633875735       11.7568702946
 Si        10.6189883039        8.5341532833       13.9832591805
 Si        14.7660236318       10.3203224513       14.7571717099
  O        11.4208862637       11.8266845818        8.1075149258
 Si        13.5323468593        8.2720875094       12.8975194094
  O        11.2547943605       14.2509866076        7.4719999648
