216
14.949 14.949 14.949
  O         2.9142090793        3.1567941417        4.5290258759
  O         5.2076465240        3.7345236987        3.1456771308
 Si         3.8982737240        2.8138731811        3.2802411176
  O         2.9025707826        2.8946734913        1.9946690477
 Si         2.8616682343        3.4528712612        6.1175908854
 Si         1.8312919532        6.4009622537        5.9812292242
  O         2.1508024963        4.8875479407        6.3971796847
 Si         5.5104426791        4.6937880157        6.6181402096
  O         4.4906748879        1.3099450758        3.4032821059
  O         6.0651132999        5.0666842328        5.1571277189
 Si         1.9758971579        1.6798785721        1.4195041179
 Si         6.4677426190        4.6140737752        3.6576238583
  O         6.4716394695        5.9895500418        2.8156079435
  O         0.5973497732        6.3913719147        4.9307251651
  O         4.3893020968        3.5656853928        6.5626321919
  O         0.5884679428        1.4168762174        2.2430284920
  O         2.2467414519        2.2481256084        6.9767406366
  O         5.5687889787        7.3120491069        0.7567801976
  O         2.7700960912        0.3191914695        1.8417714562
  O         3.0741342403        7.1428043159        5.2332002197
 Si         5.8293560340        7.4016080519        2.3437955863
  O         1.4207095842        7.3344356250        7.2450026584
  O         6.7387965196        3.9030529412        7.3032292753
 Si         0.3214766481        7.3414893961        3.6545709345
  O         4.8180850404        5.9779085935        7.3889408970
  O        14.7827971284        1.5770959967        6.8982978100
  O         7.8969062664        3.8178576721        3.4932350988
  O        14.5356868090        6.4759058493        2.5105499779
  O        12.4369755108        5.3106713404        1.2555733219
  O        11.7932844625        3.8253046527        6.7448833638
  O        10.2154016735        4.0759534304        2.1593728417
 Si        11.9076502678        6.2356440072        4.6639306030
  O        12.4495176425        4.7382419444        4.4797762038
 Si        11.7914506408        3.4344893486        5.1737831040
  O        12.8669179220        2.2559931871        4.9870823397
  O        10.3273132374        3.0700894395        4.5302151390
 Si        13.7182680573        1.1295144977        5.7646461886
 Si         9.3779593248        3.1487998329        3.1853633567
  O         9.2186651832        1.6665440679        2.5022457160
  O        12.0396313620        6.9738823669        3.2320584702
  O        10.3843831678        6.1294624958        5.1543309374
 Si        13.0107293226        6.6288213171        1.9807293057
 Si        10.9594779055        4.7335089249        0.8962714285
 Si         9.4213238960        0.5211051980        1.3554498444
  O         8.0524805380        6.8937807157        5.9895864625
  O        14.5292431587        0.4105370895        4.5779262073
  O        12.6231922378        0.3265814584        6.6456810250
  O        12.7049528876        7.1476235879        5.7232066378
  O        10.0464496915        5.9084061092        0.3234366293
 Si        14.7975380588        0.1760517818        2.9995071531
 Si         9.2761519620        7.2805700539        4.9921197977
  O        10.9619592087       -0.0063802137        1.3226478140
  O        13.3780345465        0.0659831640        2.2467611318
 Si         3.8550628988       14.8307799172        2.9881861061
  O         4.4857287273        7.8088837100        3.1439420261
  O         1.7533404871        7.8966519064        3.1530751029
 Si         3.1486308412        8.1649547406        3.9692783973
  O         6.7224357199       12.3606136960        2.5790271851
  O         4.6509808385       13.7055698573        2.1594225353
  O         3.6604707408       14.1164024150        4.4826537949
  O         4.8173758740       11.8689131962        4.0643381481
 Si         4.4038225975       12.8605865131        5.2551454517
  O         3.1454350731        9.7260125119        4.4100775125
  O         5.7301265238       13.1934285892        6.1507413744
  O         3.3271951853       11.9434951090        6.0583086420
 Si         2.3696967689       10.8005151236        5.3820072347
  O         4.2437388933       11.1353509855        1.6459586977
 Si         5.1200788403       12.2030394518        2.5325425772
 Si         2.7064499595       10.8655182145        1.1219680544
  O         1.1745442563       11.6276407422        4.6621016058
  O         1.7611901306        9.8839133703        6.5408128210
  O         1.6469999977       11.3027171461        2.2491075095
 Si         0.6729794735       12.1547686193        3.2231046887
  O         0.7559511656       13.7657140481        2.9796444771
  O         6.9667507647        8.5511557562        2.4859259952
  O         2.4848226464        9.3164968652        0.5806899358
 Si         0.8377483657        8.8506542158        7.3443338934
 Si         6.8692670408       12.9276833695        7.3049841287
  O        14.0378438719       11.8797191774        3.0800550680
  O         7.5813848003       11.4489330569        7.2380868876
  O        12.6250688585       12.8676992379        1.0029458837
  O        10.2865759123       11.2201095881        4.7026604199
 Si         8.0031200122       12.7019519474        1.6798241555
 Si        10.6789102150       10.0693701533        5.7637461080
  O         8.9634206654        7.3021584179        3.4139206806
 Si        10.1490612193       11.0776068729        3.1009990303
  O         7.5611124292       11.7891739543        0.4010069593
  O        12.2629000196        9.7880412140        5.5734189965
  O        10.1292335260       10.5558485723        7.2193494549
  O         9.9521039281        8.6817243800        5.3916407494
  O        13.7854423048       10.4579019880        1.0606808373
 Si         8.5755759698        8.4549837856        2.3498931465
  O        14.2873872646        8.5535316317        4.1663572129
 Si        12.9874283193       11.5676213406        1.9020068687
  O        13.0393537131        7.8775078922        1.0032118436
  O         9.3803835656       12.2906632742        2.4052005932
  O         8.3036692096       14.2855164751        1.4889001325
 Si        13.5821110771        9.1317664972        0.1845513453
  O        11.6264273382       10.9576001461        2.4892226884
  O         9.2276124371        9.8106429856        2.8257197673
 Si        13.3708241278        8.6131430747        5.5307760598
 Si        12.4892314441       14.4852334679        1.0117855041
  O        14.2901418410        8.8807467946        6.7996054390
  O         9.1324645220        8.2270162123        0.8505162232
  O         3.3867136033        1.2567506345       10.2109519509
  O         1.5032461281        1.9117502021       12.0395919297
 Si         4.0372474861        5.1287850000       10.9633532986
  O         4.6512018113        6.2300927950        9.9803604153
  O         0.9997238776        1.8312140336        9.3187840724
 Si         5.4785170500        1.4548256800       12.9775561541
 Si         1.8053427630        1.1904467765       10.5994901265
 Si         4.6010654555        2.3013388293       10.1718074664
  O         5.0685696878        4.7336192684       12.1301803412
 Si         0.9937033449        2.6432445481       13.4514589521
  O         5.4853622525        1.9932328038       11.4685333991
  O         2.6745999952        5.6457052237       11.7012323477
  O         5.6446815609        2.1553889664        8.9589426889
  O         1.1557795839        4.2952703003       13.3723123086
 Si         2.2126965294        5.5830650807       13.2734406281
 Si         4.8415185271        4.3088700787       13.6757707584
  O         3.8852655012        3.7533745765       10.1292729348
  O         4.8275476189        2.6883196268       13.8575041067
  O         3.4472183075        4.9875777201       14.1328041171
 Si         6.2543778486        6.7294994205       14.3720637323
 Si         7.0345842571        2.8010446978        8.4584021164
 Si         5.0029639942        7.0373552105        8.6380534711
  O         7.0164834472        1.3272455397       13.4339186017
  O         5.9809272511        5.1322169924       14.4436101944
  O         1.9117860676        7.1473775675       13.7802225919
  O         1.7374510394        1.9975918020       14.7798766724
  O         6.5381150151        7.3945382151        8.3903353674
 Si         1.1723948153        1.3386824565        7.7661551160
  O         7.6359028859        3.8287240567        9.5705278211
  O         8.0507209811        1.5964431523        8.0567504140
  O         7.8343146572        6.8141168078       14.1386679105
  O        14.3793963314        2.2486295443       13.6196809758
 Si         8.8814029249        4.8064769678        9.2387523354
  O         9.3830433986        2.6606064942       12.8670515872
 Si         8.6255566116        1.2994228263       13.3579803834
  O         9.6407157836        5.0692351524       10.6271547227
 Si        13.2531463888        1.1293870892       13.3250816591
  O        11.7883025808        1.7429026201       13.1935129546
  O        11.9589632615        4.5685078602        9.4765486227
 Si        10.9194265770        3.0785895833       13.2039303453
  O        11.5319741866        4.0853858991       12.1037130137
  O        11.6270095045        6.5807891031       11.3018407501
 Si        11.2406425954        5.0717599525       10.8645027012
 Si        11.3836235813        3.5998186669        8.2806318612
  O        11.7982247248        2.0830537714        8.6311989047
  O         9.8052462029        3.8796050451        8.2994265089
  O         8.7155337868        6.2197911294        8.4652446769
 Si        11.9210831531        0.5591877113        8.0839052188
  O        13.6180637390        0.4989954060       11.8733382512
 Si         9.3263208149        7.1608198381       14.6002425569
  O        11.1223509546        3.6510824542       14.6886373289
  O         9.1396611850        1.1591869475       14.8651139795
 Si         7.9107947198        7.2955700313        7.5703303885
  O         9.0532039083        0.0825045604       12.3840788007
  O        13.1161064706        0.0727205393       14.5526822367
 Si         8.8231170359        0.1709737749        8.2316890587
  O        10.3884874023        0.0923151022        7.8124112220
  O         4.6560136257       14.9826282983       13.0394926843
  O         5.6444970217        7.6517503123       13.1832477804
  O         1.5657503505       14.5182372727       10.4656777606
  O         6.4004795749       10.2170255709       13.3700606966
  O         6.1483647802       13.1269474492        8.7220406860
  O         5.2368546426       13.2013764309       11.1451684466
 Si         2.0091211717       13.6919013100        9.1064802728
  O         4.2410003162        8.4840584021        8.8936437108
 Si         4.9376054168       12.6625110199        9.6522188967
 Si         2.0807133603       11.6333182162       13.2944619396
  O         2.6529083982       10.2983911890       10.2118517822
 Si         4.1387248238        9.7213909560        9.9909297449
  O         4.6423635184        9.3014100500       11.4677817524
 Si         5.9571143904        9.0061583867       12.3498812695
 Si         1.2177576311       10.7431730280        9.6383870120
  O         1.3179862378       12.2264179449        8.9650775593
  O         4.9761453609       11.0394460796        9.5451346757
  O         0.6767186217       12.2855969351       12.7903912993
 Si         4.6555845649       13.3830635467       12.6431761439
  O         5.6527267762       12.6946940107       13.7140544974
  O         3.2526794799       12.5445873290       12.6158931295
  O         3.5834932410       13.3611071071        9.1349361996
  O         0.7483959645        9.4638525226        8.8030302997
  O         2.0592570751        9.9724932792       13.1216678996
 Si         1.6663908182        8.7580413010       14.1935944416
 Si         6.9056237443       11.6945445359       13.8738437823
  O         7.0767907543        8.7960691856       11.1997983153
  O         1.6498891989       14.7173117928        7.8829454202
  O         0.0787148011       10.8779257177       10.7409020522
  O         0.0619724552        8.8080551336       14.4481843884
  O         2.3297494036       11.8678481052       14.8642535143
  O        12.3030733934        9.3936068429       14.2017163944
  O        10.1336792201        7.6384532810       13.2882190036
  O         8.3108594593        8.8315925890        7.4783189114
 Si         8.5274854189        9.3163594554       10.7450763512
  O        13.6239817278       13.0925512461       11.0383809116
  O        12.8687554541       14.7869759206        9.2053905596
  O        11.6235265395        9.2132624664       11.7855151734
  O         9.7122030662       12.7006122637       11.1394021049
 Si        14.4007293480       11.9027428374       11.7942601663
  O         8.5558885958       10.3011883232        9.4644235995
  O         8.1418960317       12.2907700276       13.0358885299
 Si         9.4513182009       11.6849374023       12.3489921965
 Si         9.7148512344       14.3158344072       11.1058007777
  O        10.7950117153       11.3873739567       13.2054600939
  O        11.2907584015       14.6232113427       11.1309443213
  O         9.5469713586        8.0621673253       10.7049952319
  O        13.2920444788       11.1267367865       12.6265131452
  O         9.0447965806       10.2068651496       11.9535735896
  O         8.8815314465       14.7834431432        9.8122987394
 Si        12.8592149215       14.4870515510       10.8029247170
 Si         8.6297202100       10.3523952497        7.8472529000
 Si        10.7422451828        7.8517869550       11.7908807329
 Si        11.9739552101       10.2990691768       12.9310173217
  O         8.0509895103       14.0367509697        7.3078729467
