216
14.971 14.971 14.971
 Si         2.6809229771        5.9929727139        3.1220434709
  O         2.8838389062        5.4534807435        4.6121194864
 Si         3.2706876081        5.7955875303        6.1099221788
  O         2.1027326692        4.6855213787        2.4097303969
  O         4.7606299534        1.6294980661        1.7094540166
 Si         6.1443307546        2.3345486511        2.1357201756
  O         5.5992482970        3.0546821888        6.3202988925
 Si         0.9274110027        3.6536306493        2.0346391034
 Si         2.1291209013        0.8779223672        6.2905781403
 Si         1.3947429063        0.9073845371        3.2537260230
  O         6.3160873279        3.6718476638        1.2514968147
 Si         6.6994064593        2.6704949912        5.1970298472
  O         6.0745634237        2.6484735843        3.7156954324
  O         0.7005145087        2.3181882018        2.8979207277
  O         4.1198376324        6.4626704740        2.5671103293
  O         1.9498316753        1.1876969737        4.7321887396
  O         2.1136621977        6.7033920863        6.7156799457
  O         3.4371467734        4.4402006576        6.9428296701
  O         4.5924065406        6.7082167335        6.0921303722
  O         3.3567639373        1.7860566608        6.7854099132
  O         1.3944060817        3.1260734368        0.6182421117
 Si         4.2383752822        3.0551814882        7.2009243093
  O         1.6457652851        7.2467538839        3.0438337301
  O         2.4716571539        0.5513826542        2.0987612691
  O         7.3412085669        1.3128397085        1.7995334892
  O         0.8512217956        1.1785295568        7.2426436998
 Si         3.9849634971        0.2170967337        1.6885475019
  O         6.3154572053        7.2530415526        3.8812244917
 Si         5.5852098769        7.3459479986        7.1749789367
  O         7.3239125034        1.2518580991        5.6124988440
 Si         7.4491779941        7.4711153464        5.0145461495
  O         7.9484433024        3.6679482390        5.1410696504
  O         8.1932676092        6.1490714374        5.5405187286
  O        14.5047821791        4.4519333401        2.1125215658
  O        14.0320129079        6.8417214485        3.1944949416
 Si         8.8385597453        4.7324842755        5.9326896459
 Si        13.4207157604        5.3852891543        2.8452578225
  O        12.7815672087        4.6897217227        4.1448193005
  O        12.2497829370        5.6180266538        1.7858761978
 Si        11.0544421943        6.6715622036        1.6276323339
  O        10.3856209318        4.6797881571        5.4583745102
 Si        11.9827217510        4.3634777134        5.5012112371
 Si        11.5572710672        1.4146353298        6.2455372002
  O        12.2341628224        2.7938936167        5.7753040782
  O         9.8222734137        5.7743455312        1.0904240227
  O        10.0349120842        1.3886053550        5.6891732465
  O        12.6403241248        5.2325572676        6.6933032634
 Si         8.6894248304        0.6057820517        6.1398503314
 Si         7.9021352088        0.1032934556        0.8893967706
  O        12.4078302618        0.1582233267        5.6957205739
  O        10.6722512294        7.3169082957        3.0520392193
  O         9.2357063103        0.7006795300        0.1593046049
  O         8.7288275613        4.3697266083        7.5037143041
  O         6.0738449062        7.7196673083        1.3317196717
 Si         0.2390980476        7.8417670927        3.6078589761
 Si         5.2557323916        7.6088986652        2.7200621410
  O         6.7142461610        8.1073404874        6.3147064881
  O         0.3059830768        7.8723269948        5.2131331862
  O         4.2081864264       14.5083477343        0.2268684497
  O         3.8213347726        9.8164866353        0.5794053836
  O         2.4355570677       14.2732474856        6.3214407862
 Si         1.2523169191        8.0223481028        6.4939506132
  O         2.1672650251        9.3392952952        6.3199640532
  O         2.8182178073       11.7890437197        6.7710880017
  O         4.5325009472       14.1845895131        2.8094741248
  O         4.4290854177       12.9390866641        5.0785029435
 Si         4.9013077104       12.8048580715        3.5409653656
 Si         3.6945124300       10.1750455756        2.1520243202
  O         6.4865050545       12.6268199479        3.5011406330
  O         4.2840990035       11.5586515393        2.7217322969
  O         4.4450769243        8.9933621878        2.9767498783
  O         2.1027749029       10.2917500137        2.2628620044
  O         1.4146635084       11.1595584854        4.5573014334
 Si         1.6737157843       10.8661013367        6.1197865239
 Si         3.5977582588       13.1732905218        6.4517284509
 Si         0.8287301959       10.7301834308        3.1160521436
  O         0.4563288982       14.5783552787        3.3413120102
  O         0.2408699376       11.0680252021        6.7877123785
  O        -0.0680611780        9.3654400804        3.1301270734
  O         0.0689799491       12.0258504196        2.5052260680
 Si        13.0705518666       14.0243632197        0.0864220436
  O        11.5309485251        7.7980977080        0.5448518738
  O        13.1762611802       12.7078723088        6.5610559433
  O         8.9640464732       12.1663563110        3.9075822831
  O         8.6544234765       14.1115352579        5.5316111442
  O         8.5932149045        8.4214483725        4.4371966213
 Si        11.4629244717        9.1137935583        6.6293107142
  O         9.2038652429       11.8512168820        6.6351653456
  O        12.7723856011       10.0585758579        6.6978470005
  O        13.5555151582       14.1057901732        1.6162763339
  O        10.3720508942       11.3010669340        0.8626453409
  O         9.9782910352        9.7380680503        2.7365793744
  O        11.0115893989       13.0125242974        5.1545150893
  O        11.6989343695        7.6260668449        7.1825713887
  O        13.3326273181       13.2536836062        4.0544268963
 Si        14.3627983028       13.4736430149        2.8571060127
 Si        12.4942641682       13.5499920092        5.3764372208
 Si        10.0841612164        8.6018538233        3.8471783379
 Si         9.2638206436       10.2860096531        1.4181955246
  O         7.9473642172       11.1563170190        1.7912735164
  O         8.8945154934        9.1123310820        0.3704369233
 Si         7.8881284724       12.4734158532        2.7439055816
 Si         9.4514713468       12.7508132117        5.3187535669
  O        11.0605745056        8.9801888352        5.0679355007
 Si        13.6807676555       11.3061829647        7.1689763134
  O         8.1914158960       13.8048087075        1.8645856887
  O        10.2955901919        9.7420071957        7.5582423679
  O         4.4450673071        2.9648974376        8.8042628216
 Si         4.1016013507        3.7402349099       10.1859344915
 Si         1.0349831699        4.4393661446        9.8430610751
  O         4.9891236619        5.0779527529       10.2177300820
  O         5.0754830111        0.9240144490       13.1150318708
  O         4.4504644384        2.8125869805       11.4500482504
 Si         4.6632849884        2.4724088504       13.0059337982
 Si         6.2487190414        5.8621817778        9.6192867536
  O         2.5624216411        4.2034986004       10.2946276497
  O         5.8519371204        3.3527450597       13.6465156139
  O         3.2860335200        2.7276404604       13.8039912614
 Si         1.7180794982        2.6677068195       14.1158332773
  O         0.9327156407        3.6679591198       13.1648753042
  O         0.6233144597        3.1204540390        8.9859338770
  O         0.9440550604        5.8428105862        9.0438496240
  O         1.1641078520        1.1684529442       13.9515257555
  O         6.1541925591        6.0838068621        8.0186842870
 Si         0.3678451700        1.5389865406        8.7452319724
  O         1.1727523825        0.5401179691        9.7615329366
  O         0.3828977768        6.2404777593       13.2541307277
  O         6.0140732276        5.7603774539       14.5842284454
 Si         6.5842087515        4.2743457485       14.7444956592
  O         0.0086412760        4.6861375822       11.0707086635
  O         6.2506823819        7.3304019515       10.2886312857
 Si         5.8503517726        7.3421592253       14.7446156269
  O         6.4968498397        0.0927841509        8.9592668065
 Si         0.3778384431        0.0265208010       13.1715160384
 Si        14.8818154601        4.7864253923       12.6775760579
 Si        14.9777485411        7.1578482819        9.0150394898
  O         7.5704623840        4.9925449030        9.8296110701
  O        14.4934991271        0.4617202811       11.8354126487
  O         8.1836542590        4.3624795803       14.5020680923
  O         7.6202139888        2.4762767921        9.0441062408
 Si         7.9042887973        0.8810875526        9.0687028761
  O        13.4834353121        6.6277915064        8.8220819933
  O        13.7908931347        1.1700373768        9.0331836064
  O        11.2063648937        5.5351993477        8.8165154164
 Si        11.9207077362        5.1036888320       12.8875644656
 Si        12.2414735768        1.5866536510        9.2458713029
  O         9.7572980986        3.6609561929        9.8327546670
 Si         8.4043067311        3.8850884796        9.0116288533
 Si        11.2021585170        4.3543177977        9.9151418561
  O        11.4693363736        4.9815693222       11.3585556433
  O        12.1758431057        6.6363960085       13.2443089871
  O        10.6851534458        4.6086804738       13.8094927476
  O        12.2502245513        3.1689956661        9.5977968169
  O        13.3595335505        4.3848828143       13.1030086523
  O        11.4643142095        0.6991365911       10.3557891657
  O         9.1217317727        6.7972227882       13.8720937171
  O         8.8000238371        0.4701353481       10.3583974875
 Si         9.4420629918        5.3564414816       14.5446904076
  O        11.4745252110        1.3369762552        7.8519549694
  O         8.7364406032        0.5300477543        7.7398800033
 Si        12.2588186691        6.2840224882        7.8565906436
  O        10.2107157199        0.4624976920       12.6290938708
  O        11.9204093508        0.1549932680       14.6676817062
 Si        10.1827794683       -0.0050764017       11.0700635721
  O         6.7893726325       14.6614006476       14.7455029127
 Si         0.4185450014        7.7760660887       13.8089994450
 Si         5.3408432105       14.5898641872       14.0192224635
  O         4.3502027223        7.6488294447       14.2675343928
  O         6.9412027610        8.1838295733       13.8805646280
  O         4.9110111083        8.3319992280        8.2605593314
  O         1.4094097123       14.1179197049       12.2285750150
 Si         3.2398374221        8.8103745290       14.4177218641
  O         5.3010441042       13.3221919248       13.0104813014
 Si         5.5746939275       13.7425159838        8.8808075002
  O         4.8996420998       13.6458423485       10.3542399069
  O         4.2203592947        8.9008128815       10.7664759718
  O         3.1949268026        9.6684132572       13.0775416106
  O         1.9473359597       10.0594950160       10.8329488559
 Si         5.4377688298        8.6329770096        9.7710522453
 Si         5.2661273468       12.6196882890       11.5560972397
  O         4.1436146328       11.4612777961       11.4685670725
 Si         3.3934290074       10.0477349294       11.5415122405
  O         6.4598562514       12.4064850322        8.6437851819
  O         6.3885971152        9.8996508140        9.6718556024
  O         6.7336770822       11.9910272550       11.1500410947
 Si         0.5046362340        9.4181733171       11.1644368433
  O         1.7807382490        8.0998145227       14.6646186129
 Si         0.5363012030       14.5283528864       10.8821434959
 Si         7.0696917667       11.3379270897        9.6806358353
  O         0.4635751429        8.8772524092       12.6564793022
  O         0.3229968277        8.1297340182        7.7827786795
  O         0.1539374010        8.1094898071       10.2941728234
  O         4.5305615681       13.7216980442        7.6518508480
  O        -0.0060305469       13.1731850618       10.2109452207
 Si        10.3559656095       14.9887869456       14.1756870739
 Si        13.9548844308       11.9117130236       10.2218539003
  O        13.6524235932       11.3856000183        8.7526822942
 Si        10.8695074799       12.1402222889       14.5876926293
  O        14.4158743460       14.1915152176       14.1875815645
 Si        10.6371616213        9.9376314081       12.4995962899
 Si         8.5567940612        8.3134534771       13.9582224151
 Si        12.4016401145        7.9312347535       14.1503301440
  O         9.2567415835        9.1137902088       12.7254920805
  O        13.9689082137        8.0328983759       14.5753220944
  O        10.8428533831       12.0067513801        8.8139360645
  O        14.4315605725       10.6279208110       11.0603032147
  O         9.9767363017       13.4402747826       14.3526395154
 Si        11.0450185113       12.0563308442       10.4347183144
  O        11.8633395198        9.1192679515       13.1819262937
  O        10.6061412127       11.3201272394       13.2697714119
  O         8.5589182990       11.0706613629        9.1430910914
  O        10.7568013916       10.5259572077       10.9870265645
  O        12.5610000730       12.4076545561       10.8394532065
 Si         9.7036993728       11.1716167253        8.0115357880
  O        10.2133914440       13.3359082693       10.9929271344
  O        12.4065924011       12.5690031348       14.8053864170
