216
15.135 15.135 15.135
Si      0.086106566600000     14.294356324599992     10.017673716999990
O      12.169921415899996     12.983498950399994     12.350231551399993
Si     10.733033704599997     12.761930789199997      9.278791350800009
O      13.914467195800000     11.247845074500008     11.405743664599996
O       0.736866909700000     12.898874459299989     10.526474731399997
O      15.012049959000008     14.237597312399997      8.424608976499995
O      11.298874360199989     11.238210656999994      8.966393201999999
Si      0.373105627899999     11.397198391299995     11.013150066999987
Si     13.015013987999989     11.656310972300000     12.726532283399992
O      12.015734733800006     10.469184167700000     13.222987346500000
O      13.928444443399984     14.470313425199995     10.938293269299987
Si     12.415363141500002     14.257285135199982     11.377503308900010
O      12.015520167899989      0.512020034299992     12.106707655400001
O      10.418871991599982     13.458592262499995      7.845850902700009
O      11.700772653100000     13.846973724199994      9.989515637099998
Si     11.225364484499998      9.700869508999995      8.342826371700003
O       0.898669599799988      0.527533556500008     10.218555131499997
O       0.974474150999996     10.386361648500003      9.899116509800013
O       9.482980847299999     12.735375797199998     10.312432623799992
O       0.659840616399989      0.993582380399999     12.746743754099999
O      13.973427649100007     12.117132134199981     13.927498432299993
Si     14.228802510899992     14.922374595399997      7.205666947799997
O       1.111029988499994     11.001947992599989     12.372419302200006
O      14.060812027499990      1.395080286299989      7.387137504400003
Si      0.766255776800001      0.627129453100004     14.314727551399985
Si     11.714257665099993      1.505009834799989     13.351958618799999
O      12.865998849899984     14.085530568000003      7.148580791100001
O       9.097631603899995     13.462274179900003     12.975930161600004
Si      1.443257197299988      1.453116144099974     11.404470509199998
Si      1.998782037299990     11.462942033699987     13.614676270499993
Si      8.482634377199984     13.306264090499994     11.459530201700003
O       7.824808606699998     14.707021572699984     11.006589147999996
O       7.275918004299993     12.261753416599994     11.485818523699992
O       6.179255313399995     10.310457654199993     10.231259046800009
Si      4.276471054999992     13.088061757100006     13.044357208299990
O       4.841775591599996     11.946332569400006     12.046754117600010
Si      5.478595473699993     13.397227426299990      8.213536455899995
Si      5.897308785299986     11.766237072599999     10.839040036899997
O       5.302335858300001     12.589901890599997      9.590068523699987
O       6.336313684100001     14.709736018499992      8.728232780399992
Si      6.859202038699981      0.443445769599991     10.041132120800004
O       4.602402053500005     14.551402868800004     12.508407537000009
Si      4.446084897500008      0.934676774599990     12.010282926899990
O       2.703134148599993     12.825148988499986     13.141552372200010
O       5.631368886499999      1.076294578099984     10.918196264099997
O       4.054509496399993     13.851744279399982      7.540970088899988
O       3.019004369999990      1.154700984999986     11.329955618100012
O       3.016409291199985     10.279176713199995     13.934976159599980
O       8.143573845300009      0.358661144199986     14.407201069999994
O       6.103505974699993     12.359033366200002      7.059985748799998
O       4.755874780700006     13.044991560099984     14.575914134100005
Si      8.585148043099997     13.936523268499984     14.460705445200002
O      10.122815168099990      1.552916021799987     13.377952177599994
Si     11.590836556699983      8.906150887899999     13.114529356199993
Si      1.173755187500005      8.853528657099996      9.440669825999986
O      10.818019691800007      5.408020673100000     13.994432997699992
O      10.131117127299991      8.877219529799991      9.202750495099988
O      12.538814945799992      8.717931122799996      8.342246729800003
O      10.815615833799992      8.720398137800000     11.729450696199997
O      14.826259600499995      8.320886634199997      9.274605436100003
O      12.961000918999986      8.078904801999990     12.984330222900002
O      12.170812669500005      3.068739912300006     13.222901283400001
Si     11.669294694899989      4.579198917899986     12.864191478399995
O      14.923235598399994      7.052547260999996     11.722067254400010
Si     13.371301814499997      6.928085798699998     11.948536802599993
O      12.959655530099987      5.479843419300011     12.505507055899995
O      12.706714373699999      7.225240806799997     10.501922335899994
Si     13.427636155799993      7.590998777400007      9.106548835799988
O      10.729939778799999      4.473429246799998     11.559727272299995
Si      0.121519671200001      5.330697904400004      8.369808977100000
O      13.827215805599987      6.124213552300001      8.488149769099991
Si      9.733575829599992      8.253907053499999     10.650371827999994
O       9.564412261700006      6.633300361500004     10.539988539599999
O      15.016284020099981      3.783843413000013      8.007281886199991
Si      9.356367458099994      5.072610862999999     10.957788893500005
Si      1.362588878199997      7.139383906600004     11.856878216499986
O       0.971284862399992      6.202300280899992      7.308966037099988
O       1.053762412799998      5.183871655299997      9.682655489900004
O       8.935290597999995      4.078626020500000      9.754174509700007
O       9.406517796799996      2.499518235400005      7.701923611599987
O      10.750395264099994      8.165206648700002     14.311164225199990
O       1.207389937299997      3.047047297799990     11.245282665800000
O       7.589883617399986      6.048463964200000      8.088643502099991
O       6.799821535499995      4.571914151899999     14.320452698199984
Si      7.567500000000000      7.567500000000000      7.567500000000000
O       1.924447953299995      7.934873199800001     10.549463159599998
Si      2.010755596799995      7.393014428099990      6.969355106599994
O       7.829296969500009      1.634130743999990      9.586424819199998
O       1.685706834899991      8.016969394599998     13.145459167399993
Si      6.364751275399994      4.999020387699997      8.124462084100003
Si      1.877739792099987      4.468471142499996     10.876977917799991
O       6.983473331100000      3.522837877000006      8.087015932299995
Si      6.978346339499992      8.930738630400000     10.400335876000007
Si      7.140730043800001      4.035445765899985     12.819251025699998
O       4.369501815099991      1.942907823899987     13.295911849700000
O       3.446746052999998      4.155952927400007     10.610517940799994
Si      4.874205088199996      4.845080483300008     10.932604351899993
O       4.595236694600008      6.117489717399990     11.881906718800007
Si      8.733209957299996      1.819696593699991     14.098174954799990
O       5.874899731399987      3.915031063600004     11.807959576300007
O       8.217811147999990      5.016100108800001     12.111044127900009
Si      8.315473053699986      2.935458285000009      8.790733110900010
O       7.509925313799990      8.406561440300001      8.957511397499999
O       5.953341294099998      8.097888541699993     11.324741215899994
O       1.850886446299988      5.607836413199990     12.030823574399989
Si      2.808920422399986      8.691337704300002     14.072408904599987
O       6.409267143900002      6.988265267800005     13.694599914599999
Si      5.291651529399995      7.384254136899988     12.596391031699987
O       5.544887834099993      5.188585730799997      9.505628426099989
O       4.215196773500001      8.146231966100002     13.519150421300006
O       7.752581806999998      2.569646282999992     13.063559279399994
O       1.919298530199996      8.634925864600008      8.014033544500013
O       8.381508252699991      8.963423215899997     11.184216207200004
Si     11.590373379700001     12.569188059299986      4.123016753499998
O      11.610024973900000     11.002181459099988      4.556151334899987
Si     14.086323948299983     13.652246882899984      2.553735565799993
O      14.371923847399996     12.668672937400004      1.313550684499987
O      13.039642379500002     13.053362376199990      3.611835555800004
O       0.339094982899978     13.760019172299993      3.388054527900008
O      10.668615016599997     12.749438529799995      2.814519124600006
O      11.070085141199993     13.536283200600002      5.329116275399999
O      13.513416433199989     15.026494223999993      1.868190528599989
Si      0.918999653199996     14.574201967699999      4.657802745399992
O      14.934445746099993     14.706223487900004      5.790993369799993
Si     13.392214501399987      1.094345509999993      0.777233009400000
Si     15.017162907999996     12.717920630199998     14.984770848799997
O       9.562123783699999     13.768963533599981      0.635944698399987
Si     11.194247646000001      9.568085835699994      5.202417984799999
O       1.219041767999994      0.856194352799997      3.990708698999998
O      14.840570947999996      1.396523160499984      0.119610832700003
Si      9.394798269599997     13.531520918599984      2.249654494299989
O      11.145867301800003      0.756639916400004      6.831099572299996
O       9.164013554599995     14.876908509300003      3.123797597899996
Si     11.321090462700003     14.271759905899996      6.763514201699993
O      12.335593156700000      0.839908965699996     14.704723728999999
O       1.139673118100000     11.723076865299992     14.945700119800000
O      10.841811013900003      9.824128986899989      6.769470912399997
O       9.412673406700003      1.385701066599983      5.251694030299992
O       0.419592177600004     14.194271587199994     14.558315759200003
Si      8.612726454599985      1.020252074599994      3.946541300800000
O       5.145522880499993     10.059273400899986      5.734662646199980
O       6.009487613699994     14.882112839799982      1.005222251300014
O       8.135615526899988     12.592172323000000      2.575647275899989
Si      5.685078075900001      0.240097083200000      4.221346339699993
O       6.026603048599989     13.928390035799996      3.671818186199989
Si      6.623463728299996     12.571477349799991      3.100138203599990
O       6.558367234900012     11.629715101599997      4.403204972599996
Si      5.537876453999990     11.631495390599989      5.675294642799988
O       5.771951723899997     12.331126450599996      1.737088759300013
Si      5.925754769599989     13.340565586999988      0.477325055899994
O       2.226867163899990     14.013821600199993      5.416792329799990
O       4.616987363299993      0.046281893799988      5.409395806199987
O       4.221635844900000     12.494829539799985      5.329085490299999
Si      3.737440071199993     13.913150573799992      5.935862375399995
O       7.126323558399981      0.852115664400001      4.553975494600002
O       5.072842895600007      1.145562666299996      3.056541264600009
Si      5.594095689800001      1.226517191199997      1.538220030299982
O       2.235736525499988      1.159898906599984     14.708822452900000
O       7.283884012500006     13.058589559799991     14.795445671999996
O       9.871184095299997      8.956897606299997      4.468570223300005
Si     10.248404324199992      2.053433664099992      6.418011954899998
O      12.894869898599993      2.411622119900002      1.543393741600000
O      10.899736107599995      3.426570548900002      5.820880519699988
O      12.397687701600002      8.475012149599987      5.016173678700009
O      13.836281356499999      4.855640913400003      1.793850395199993
O      12.418421230699987      6.598592605799989      0.386180051699997
Si     13.526450349799982      3.476936255100001      2.559123421400000
O      12.400561751200003      3.681939015299998      3.683212510199994
O      14.871526588000014      2.893170506199988      3.221406276900003
O      14.922030782599990      7.079365570399992      0.924689369999989
O      12.939490009600004      7.080317067700000      2.824511604200005
Si     13.553390728099988      6.414853432099991      1.483371548599990
O      14.607264518999989      6.924200004699992      4.700357225600007
Si     13.009075147699996      7.082354212399993      4.438591432499987
Si     12.175681048200008      4.187441049599992      5.190774987600006
O      12.183678806799994      5.821315561599994      5.102765405099996
O       0.571722371100011      2.652136309000011      5.740195413599992
Si      0.931460836599989      2.408099992200006      4.191161364599987
O       9.812310972199992      6.524939794199992      1.071940401199983
Si     10.901517514999988      6.684001080600001     15.016804280099992
O      13.363364039499995      3.675366500699992      6.120160404999996
Si      1.021510585299994      7.060745974000001      4.226860495999994
Si      1.366393091999987      7.302390738299999      1.242977766799992
O       1.360335879299987      7.771381405699997      2.809270281900007
Si     14.526543630199978      2.835183085899993      6.815604683600003
Si      8.210421306499997      3.003241382099996      1.668705075200007
Si      2.882030540599986      4.600950025100006      3.750847339799997
O       9.008787890699999      2.716892989600011      0.288825391099994
O       3.656219371799988      4.630774756300000      2.336172321799999
O       1.754429865599988      7.851481751799986      5.430769732100005
O       1.602800632499992      5.569219883400008      3.990137679999989
O       2.311327772999995      3.119318775899996      3.845372042200003
O       4.742494870400005      5.798072275000004      0.287039408899986
O       3.478486712699987      6.741485242499992      6.999393210900000
O       8.785779152099991      2.253767533499989      2.952601895600006
Si      6.284766785200003      5.982464209999996     14.957424594100003
Si      8.571607641300002      8.007479862699990      4.665714647600000
O       4.358166314400002      1.785976141199995      0.756285130300000
Si      3.417251780299985      4.995935799600005      0.777305106599995
O       7.125269949099999      8.734040899900004      4.543521801499995
O       8.618305744200004      7.612776670699994      6.287381962899985
O       4.914123304800003      7.353022711299992      4.944561850800000
O       6.187642488999987      8.079423247599992      6.933518332999998
O       2.239826244499990      8.406266203300001      0.436454141800001
O       2.083590685199987      5.904312374300006      0.840536866600003
Si      4.471419518100005      6.092120057799999      5.907151441599996
Si      8.494407561599997      6.157542509300000      1.956019076800009
O       6.750201958500001      2.343361319900011      1.402217605999994
O       8.372268538199991      4.549077998099991      2.098361924600004
Si      3.486678636999994      2.185681885899999     14.642877343199988
Si      5.803139911100006      8.609315909400010      5.468045130799998
O       3.113724050699994      3.753694899199997     14.889203170400007
O       3.892629112500004      4.952267038200016      4.938754591799997
O       8.557486144600000      6.895049238400001      3.433381391599998
O       7.179566251199994      6.522364015799995      1.062529925799991
O       5.548340401100003      5.264086880399995      6.767159993799997
