216
14.876 14.876 14.876
 Si         2.4103048093        3.8356317248        3.2545209680
 Si         1.1606294243        3.8619381474        6.2637455667
  O         3.9603576951        3.8843950420        3.7191203092
  O         1.9814784117        2.4764252924        2.4833508601
 Si         6.0265224514        1.8311369334        1.8840568995
  O         1.6604549739        3.8888661326        4.7052927369
  O         2.1650676545        4.9666688576        2.0838223745
  O         6.2740664127        3.9550327273        4.9540245987
 Si         5.0710155232        2.9842793317        4.4773109047
 Si         1.2030499837        5.6414868579        0.9549976754
 Si         0.9608573124        1.8862324545        1.3745479161
  O         5.3853491111        1.8288602729        3.3726544636
  O         4.6260108452        2.2425228967        5.8494189122
  O         5.9614387926        6.2628064870        6.2838670381
 Si         5.2069210162        0.9907771823        6.6968336245
 Si         6.9757197940        5.1518564346        5.7810405489
  O         6.7925368172        0.4948352040        1.4954904618
  O         1.1683791173        5.4006712881        6.7733833617
  O         4.9498229108        1.9909311360        0.6836356294
  O         0.8233448009        0.3056264834        1.5572302436
  O         1.4780222809        7.2123918638        0.7400813663
  O         3.5541115075        6.5303880770        7.0243507897
  O         3.9685645584        0.0806208010        7.1098678803
  O         7.1852896580        2.9032056083        1.9902495832
 Si         4.8260690450        7.3605084165        6.4518201610
  O         7.7659923828        4.7127202446        7.0981512851
  O        14.6414597987        5.4631609392        1.6394704537
  O         7.5281725197        7.4402715158        0.6740575581
  O        14.5550029381        3.2239800928        6.1196081943
  O         7.9342219165        4.8677114984        0.7618747205
  O         8.0388612455        5.7852058984        4.7859465196
 Si        10.5946450804        1.5842833721        0.6055721972
  O        14.3914494054        2.5587706252        1.5507260708
 Si         8.5243682693        3.6778931690        1.6373256193
  O        13.1419854075        2.7241004042        3.8115103761
 Si        12.9447442007        2.7772589242        2.2085188899
 Si        13.1609200337        3.3633070969        5.3052996552
  O        12.3867356009        4.2356634404        1.8156260000
 Si        13.0639784611        5.6915782746        1.7259175566
  O        10.6136424618        5.7953718066        4.5366360624
 Si        12.1590337110        6.2415263714        4.5435315607
  O        12.8990042853        4.9646894883        5.2080269495
  O        11.8945147847        1.7304345910        1.5693804647
  O        12.7217734715        6.5224757469        3.0564370567
 Si         9.2385711335        5.5873638006        3.7609339833
  O         9.2408353714        4.1620174606        3.0015603374
  O        12.0841548302        2.4939535694        6.1289850164
  O         9.0165478744        6.6936472715        2.6340997645
  O         9.5853221799        2.8086138844        0.8251190063
  O        12.5573602954        6.4447731922        0.4164020498
  O         9.9101764064        1.2446713057        7.1811996729
  O         9.8261278561        0.2257615709        0.9899743328
  O        10.2249846192        3.7520856667        7.2978816015
 Si        11.0500458313        2.3775721735        7.3480063713
  O         6.1278140845       15.0270434258        5.7015267263
  O         1.4067134757       14.4547929073        6.6951897036
  O         4.6969448851        8.0286687675        4.9695794985
  O         6.7103395278        7.9232796123        3.2057065207
  O         1.2431595863       14.6170299855        4.0200698849
  O         2.5754635349        9.5059119383        0.7537231418
  O         3.9703806525       11.3457281549        1.7467128539
 Si         6.6500177956       13.8322396162        1.8523887210
  O         4.4544975869        8.9197679669        2.4962978298
 Si         5.4471739020        8.7779435123        3.7478827651
  O         5.2845337568       13.3791304173        1.0824285024
  O         5.9466497198       10.2543604329        4.2059629581
 Si         4.0521588834        9.8377249772        1.2533752201
 Si         1.3489681320       14.0132376271        2.5128507488
  O         2.8826469181       13.6584101853        2.1489814285
 Si         3.7567684043       12.7942610685        1.1028081183
  O         1.3896408129       10.2443833076        6.0242427861
 Si         0.5762795801       14.0579710073        5.3782359065
  O         7.0292640498       10.0832514118        6.5187573231
  O         0.6591192673       12.4823621992        5.2036046148
  O         6.6953623965       13.7244013875        3.4661712449
 Si         0.2960442699       10.9437824680        5.0946710661
  O         6.7830018289       12.4630939246        5.6166861870
 Si         7.0737460666       13.9349986340        5.0247254673
 Si         7.0540323051       10.9383268516        5.1713821326
  O         0.4163281698       12.7300920933        2.2260158081
  O         1.5612065184        8.0435023665        7.0386195037
  O         0.0868824717       10.5629180110        3.5401932853
  O         5.2119340824        8.5104857250        7.5270804155
  O        12.8937498516       11.6429129523        2.0628264837
  O        12.3107250282        7.6738049492        5.2970315805
  O        10.4950328970       12.8885563319        2.1416560434
 Si        11.2007258993        8.6295800008        6.0119961535
  O        12.2344988809       12.9647429641        4.0487945160
  O        13.7790277222       10.6616471726        5.8075086937
 Si        14.4728648780       11.3425971484        2.1957108397
  O         9.9859481810        8.7545650739        4.9384130868
 Si        12.6667807001       11.1890259489        6.8238455885
 Si         9.7727836207       14.6851015040        6.4685851672
 Si         9.5618059348        9.8440589057        3.7960587658
  O         8.8516429079        9.1890497115        2.4811148823
 Si         7.9824706216        7.8368236528        2.2045505177
  O        11.1531773352       14.7020560227        5.6198584934
  O         8.4986240786       10.8531960682        4.4657126224
  O        10.8961565028       10.6630706080        3.3992445275
  O        12.3095011258       12.7204245807        6.6102798941
 Si        12.4241934345       13.7682606532        5.4104417462
 Si        11.5952938616       12.0339906362        2.9118122074
  O        11.4871319483       10.1659749393        6.4522263595
  O        14.7059339044       10.4223423147        0.9009281275
  O        13.8805394624       14.4765459906        5.4569158051
  O         8.0050759166       13.1376245068        1.3162955893
 Si         9.5471335438       13.5208406763        1.0199616997
  O         8.5866900862       14.4493400143        5.3795813954
  O         4.3770594839        6.1924977839       12.7203651206
 Si         2.0227477165        1.4420364050       13.3946540705
  O         3.6024259411        1.8282378961       13.2380114054
  O         4.8808288935        4.0218192445       14.0593937490
 Si         4.5156014804        3.9505387313       10.1774702099
 Si         4.9204895630        2.4071921248       13.9982263597
  O         5.3665974717        4.1320576977       11.5682548075
 Si         5.4240318680        5.0274255025       12.9369837162
  O         3.4801519585        2.7283086528        9.8249963472
  O         6.2854374564        1.9813973606       13.2199245119
  O         0.9122029104        2.9776623785        9.8323155054
 Si         6.6841674188        2.4326358754        9.1066429025
  O         1.0833229216        1.8930112425       12.1557673873
  O         5.7007603390        3.7281055402        9.1010242871
 Si         2.1367487034        2.3744076670        8.9498650710
  O         3.5586136223        5.2238991034       10.0830801600
  O         2.1499276354        0.7392581912        8.8413236916
  O         1.5011705663        5.9535104528       11.7279539992
 Si         2.4430447206        6.3221636580       10.4623695110
  O         1.6621248312        6.5254930883        9.0807102121
  O         6.7968553227        5.7241274823       13.4674865429
  O         1.2259113433        5.0478042172       14.2916050497
  O         6.7772177526        1.8113650501       10.5942360005
 Si         0.4808584202        5.4245746856       12.8723320012
  O         6.0475712931        1.4109111663        8.0170620992
 Si         0.1301707616        2.8254469734       11.2453803335
 Si         7.2401623319        1.3388093804       12.0756488812
  O         1.4902295845        2.1391688057       14.7494840726
  O         3.2163540775        7.6745132756       10.9136918086
  O         1.9853291124        3.0406612428        7.4406505815
  O        -0.1633916795        4.1341567188       12.1513133576
 Si         1.9977152620        6.5808890948        7.4879202295
  O         8.1851885268        2.8859315430        8.7651252535
  O         9.4167712634        5.2059769818        9.1778576158
  O        14.2152884799        6.5266943442       13.2240327951
  O        13.5306634439        2.3176952735       10.8147129696
 Si        10.4399797405        1.3339401767       12.4100837195
 Si        12.0910804884        2.7908120747       10.2355003660
  O        10.9886130543        2.3811313013       11.3280087734
  O        11.8173701696        2.1493676239        8.7664011993
  O        11.8770623947        4.3862864326       10.0796925063
  O         9.3456865194        6.2081424988       14.0450389882
 Si        10.6847116577        5.4840003769       10.1400020439
  O        10.0188815445        5.6298539540       11.6017991637
  O         8.8259189831        1.5544055270       12.3908823488
  O        10.9899158396        1.5782004595       13.9110874516
  O        11.4061195994        6.8565781841        9.7568665378
 Si         8.8836746881        4.1658755761        8.0790491837
 Si        10.0846375911        6.7631542432       12.7382324426
 Si        12.9147380980        7.2090704533       13.9277181252
 Si         7.8616245340        6.0997551906       14.6506570919
  O        11.6375283261        7.1074092413       12.9733433768
  O         7.0166372667       14.6359902060       12.1461468814
  O         1.8976334769       14.7191391856       13.4648029493
 Si         2.6139480366       14.4508904743        7.7847915997
 Si         3.9006126454        7.6682039329       12.3719899845
  O         2.9007165585        8.0104315919       13.5462477089
  O         2.6321587181       10.3176071036        8.2618733758
 Si         5.6623013455        9.7809389692       13.4232738548
 Si         3.6510735501       11.4726059137        8.7309632996
  O         5.1207388849       11.1657764658       12.8052162875
 Si         2.2862030535       13.1978569831       13.1511469707
 Si         4.6458167658       12.0715500689       11.5509036582
  O         3.8794550871       11.3336529774       10.3326753234
  O         3.5540508994       13.1277553273       12.1375828085
  O         6.0268705309       12.6451252525       10.9204167141
  O         5.1224008782        8.6743176064       12.3944468533
  O         0.9373508220       12.4842804247       12.4788473275
  O         2.9866041911       12.9495376091        8.3574693769
  O         5.1129768875       11.0806422615        8.0959645534
 Si         6.1175740836        9.8272568106        7.8115538004
  O         0.7355011150        9.1687496650       13.8055091871
  O         2.9058107167       12.6452337026       14.5778958125
  O         7.2383137162        9.5188435640       13.4572754277
 Si         1.4234502127        9.5704301606        7.4995040367
  O         0.1620235206        9.5913853307        8.5181127647
  O         5.1256552862        9.6610006791       14.9356561395
  O         7.2561886363        9.5892018601        8.9362751340
 Si         7.4320865908       13.2979432092       11.3844383328
 Si         1.8842202128        8.4493749673       14.6675085435
 Si         9.6514925316       12.0035987705       13.1860216004
  O         9.2545130259       11.4005254290        9.0049230385
  O         9.8440223648        8.9332720019        9.4957977274
  O        11.0625980721       14.7711989504       11.9822838894
  O         9.5854662510       10.4249425385       13.4765461847
 Si        11.6099001138       13.3597083247       11.4146273996
  O         8.2714710778       12.4740704311       12.4843608288
  O         8.3367550676       10.1703200965       11.1610884143
  O         9.5881457491       13.6300900380        7.6866100178
  O        14.2932230209       10.9033526631       10.7300886965
 Si         8.6678982598       10.0163769573        9.5988636041
  O        10.9969655540        7.9360022785        7.4523071377
  O        10.9149188744       12.1582480599       12.2203256351
  O         8.3595054537       13.5639050663       10.0824388838
 Si        14.3127250860       11.9340935742       12.0187448021
 Si         8.5961547394        9.5049715657       12.6001417328
  O        13.1354120007       11.2494340086        8.3527090872
  O        13.8092245493       11.0816769746       13.3064463850
 Si         9.5750686514       12.9756477402        9.1638135335
 Si        11.2302801293        8.2626958785        9.0296836349
  O         9.2567002845        8.0812945354       12.3196990187
 Si        14.2717306924        9.9073014852       14.3082565186
 Si        13.7805722773       10.1768508469        9.3565132137
  O        13.2250001224       13.1252046133       11.6433510492
  O        13.1436715920        8.7605617672       14.2999665232
  O         9.9230499684       12.8941393871       14.4738987761
  O        11.0077670794       13.2291580113        9.9020416300
  O        12.5661469645        9.0902415320        9.4988586186
