216
14.881 14.881 14.881
 Si         0.8797343859        2.5589360315        3.2581958517
  O         2.1444499736        3.4747206157        2.8260616160
  O         3.4556228498        3.2973572825        5.0214097835
 Si         3.4832585896        3.9890967136        3.5755972203
 Si         5.7443912241        2.3810076602        2.1474421709
  O         4.8530698713        3.4869326693        2.8959644601
  O         3.4666763560        5.6030740669        3.7140216757
  O         5.6103443183        1.3957319849        5.7872420006
 Si         6.3703870364        2.6604221556        6.3784392061
  O         1.1442514271        1.0716992758        2.7270819844
 Si         3.7294834687        3.8649934075        6.4886304793
 Si         6.1044235794        6.8520161826        1.1288885106
 Si         4.2876858335        6.9462065894        3.3807880879
  O         5.2117296825        2.3152760332        0.6566675406
  O         3.3031311992        5.3997174978        6.4355679583
  O         5.6175336901        0.8941954756        2.7362565228
  O         0.8214119028        6.1228166439        7.0285771314
  O         5.3036100589        3.7952713760        6.7880068273
  O         4.6992296371        6.8485626290        1.8503368150
  O         0.6693736289        2.4769972047        4.8592918942
 Si         2.3831415267        6.5211965821        7.1013564615
  O         5.6518152197        7.0239103919        4.2875380057
  O         7.2710138764        2.8926393123        2.1562299688
  O         0.3239535657        2.4962719280        7.4318119120
  O         7.2626177826        6.7819727746        2.2857106510
 Si         7.2509214613        6.8839754775        3.9290135161
  O         5.7843505944        5.7025926280        0.0115715043
  O         2.9014530112        2.9786168078        7.5368960821
  O         7.3589346991        3.1580682548        5.2163897445
 Si        14.4975484217        2.7694067029        6.0400153371
  O        14.0475418841        4.3006781949        5.9590660012
  O        14.7246802985        6.4556558417        4.7112736016
  O        14.3965924518        3.1384949484        2.6526276190
  O         8.0132620994        5.5410973250        4.3776589352
 Si        14.3867866439        5.8589129315        6.1509909168
  O         9.1836505747        4.1506009989        0.8309219587
  O         9.7519219395        2.1373353666        2.3934114881
 Si         8.5236407474        4.2727935768        5.2081748464
  O        13.4863045227        5.6266855847        2.5642504149
  O        11.4815721567        1.4016835603        4.2053370511
 Si        10.7165028283        2.6722879073        3.5754472492
 Si        13.1871766296        4.1032233525        2.2438167487
 Si         8.6567464781        2.7163864346        1.3715890355
  O         9.8445465388        3.5524342727        4.6235378960
  O        11.8352150111        3.6469295049        2.9712000565
  O        13.2242513130        1.8103984086        6.0244907912
 Si        12.3864530586        0.6503337731        5.3083418729
 Si        13.9171326980        6.8990101938        3.4069559000
  O         8.7658891727        4.7941427383        6.7139133391
  O        13.0588671319        4.0609286657        0.6589803550
  O        13.0624115992        6.5305529514        6.7877768624
 Si        12.7485192755        0.1608300324        0.3127939310
  O         8.4226754070        1.8342113969        0.0242908310
  O        13.9839430771        0.1655822510        1.3279817184
  O        11.4054692303       -0.0732892087        6.3607671735
  O        12.2350219040        1.6567117455        0.0786393950
 Si         0.5058594881       14.6659123838        2.0023643635
  O         3.5520767186       14.7118342903        5.7794116882
 Si         5.1472875008       14.7570433222        5.8885336203
  O         6.2912084676        8.2762740570        0.4101037866
  O         1.4985943519       14.2943326670        0.8091460455
  O         2.6357404891        7.9186085042        6.2922211077
  O         5.7144230892       13.9623468227        4.6213275608
 Si         2.2283770799       14.2558659290        6.5510692957
  O         3.3909957805        8.2737880808        3.3123799162
 Si         5.9874295073       14.2409836440        3.0572989790
  O         1.5546179292        9.9357980981        2.3938997114
 Si         3.0303456602        9.8398586430        3.0708525846
 Si         4.4823425446       12.0656156161        1.2361106140
  O         4.0497150009       10.7559775069        2.1572293541
 Si         2.2578569318        9.4664334768        5.9054225789
  O         5.0467804734       13.2234670472        2.2233862492
  O         2.9793027236       10.2486550001        4.6571124689
  O         0.9851764138       14.1430822217        5.5482936693
  O         0.6841112808        9.5846496459        5.5404060666
 Si         0.4891985220        9.0187725362        1.5756534582
  O         2.6414126889       10.2455630284        7.2589111653
  O         5.7023224070       14.1316766454        7.2763150183
  O         1.4038161454        8.3417029003        0.4130071220
  O         3.2193201039       12.4935877473        0.3328843379
  O         2.4743103627       12.8190033544        7.2055641643
  O         0.3226440277       13.4829546667        3.1120099299
  O         5.6249773157       11.8932528597        0.0978267673
  O         7.3501709106       12.0777010862        7.3625542376
  O        -0.0086231996        7.8516419939        2.5591360741
  O         7.5926744677       14.0522385063        2.8067562274
  O        14.3974853038       11.9827996490        5.2225675448
  O        10.5210734522        8.8487422558        4.8554272818
 Si         9.1359763148        8.8392102992        5.6547532307
  O        12.0596921416       11.8270143432        1.3282775518
  O        12.9627119889        9.8297642534        5.2146002078
  O         8.7576323893       10.3473106811        6.0381724809
 Si        14.7055702823       13.4707662194        4.6606235861
 Si         8.4619251487       11.9018920872        6.2112701440
  O        13.3809655607       14.4014060712        4.7126572781
  O        10.0985041050       13.0664282418        2.9722916722
  O         9.4198152145        8.1892296468        7.1135090515
 Si        10.8698669372       12.9344660758        1.5347442960
  O        11.9043636707        9.9063065905        2.8938276967
  O         9.1867857721       14.7050848329        4.8940018389
  O        14.0661092752       10.3426814483        7.4389461485
  O        13.9781253134        9.8368439373        1.1610246177
 Si         8.7750848897       13.5619630528        3.7956026115
  O        12.5624433354        7.6051394594        3.8809363401
  O        11.4022968093        9.4304525979        0.4041818809
 Si        11.9725727235        9.0459570605        4.2358368330
  O         9.6723446509       12.8813437762        6.6949338208
 Si        12.3968412669       10.2373859205        1.4105333244
  O         9.6725058021       12.6359782716        0.5146635975
  O         8.1111011878       12.3925028003        4.7067141686
 Si        14.2647788860       10.4866423391        5.8471081667
 Si         9.8354056341       14.4642272183        6.3842970062
  O         8.0227878406        8.1002155875        4.7150010674
  O        11.5619141806       14.3003195969        1.0800690246
  O         2.8947443356        4.1487307738       10.5771408845
 Si         2.2604110430        5.5506699538        9.9763523479
  O         4.4681021680        1.0857331553       13.4872652184
 Si         2.1432553223        2.7367792230       10.9318963232
  O         1.4951851831        2.1463329764        9.5984093973
  O         5.1143358025        5.9441487952       12.4853571548
  O         3.0608904643        1.5615293161       11.4967832600
  O         0.9252801498        2.9093872349       11.9836527919
  O         6.4649976085        2.6339332324       13.2271341109
  O         2.8057044123        6.3605101289        8.6695519414
 Si         5.0526338945        2.4996309594       13.9721591508
 Si         4.4817014350        5.4607647805       13.8934924023
  O         4.2075383768        3.8669687917       13.7325001812
  O         0.7635711803        5.0529435049        9.6059065580
  O         3.0503311576        6.2131443584       14.2949053375
  O         2.4790951924        6.6931841142       11.0855385940
 Si         3.6091817416        0.3271542615       12.3693073758
 Si         1.7095804137        2.0153778888        8.0366553307
  O         7.1133008999        6.5350065953       10.7581353972
 Si         6.0083991336        7.1103282362       11.8227387068
  O         0.3347979070        6.6920459756       13.7230994109
 Si         1.8223245332        7.3376648624       14.0727328380
  O         7.1810933777        2.2477139435        7.6810109487
  O         1.9774920169        0.4784828371        7.6863086041
  O        11.0913080296        3.7093712492       13.8840976314
 Si         9.7161277761        4.4551882698       14.2199358323
  O        11.0839032963        5.0428629411        7.8386120883
 Si         8.0300963748        2.3525846873       13.4035729640
  O         9.6073029758        2.9421760585        8.3507338840
  O        14.3021968001        6.0283888485       11.4907333633
  O         8.0979472609        1.3934486805        9.8381483652
  O         8.5942675286        1.2466632010       12.4016062868
 Si        14.2207380484        2.6363928134       11.8582970542
  O         8.6862913641        3.8093254429       13.1571902812
  O         9.9214309282        6.0303630294       14.0516233889
 Si        14.1679264873        5.0523001667       10.2404178786
  O        13.6681374293        3.5679144636       10.6552426478
  O        13.5611774208        3.1395678998       13.2212206090
  O        13.1373690416        5.6972074565        9.2373587289
  O         8.9247595004        5.2969292274        9.3366649324
 Si         8.5383708554        1.7381174991        8.3427151880
 Si         8.7130616163        6.5149071344       10.3810345839
  O        12.3206306761        6.3675922009       13.0585064364
  O        13.8883656872        1.0762672809       11.6609233718
 Si        13.8781586135        6.8459121566       12.7794910292
 Si         9.5845461970        4.5307879209        8.0821999233
 Si        10.7335057102        6.7644380094       12.8575540501
  O         9.9170854826        6.3621135560       11.4980535616
 Si         8.3432313950        0.4007253533       11.0639268617
 Si        12.1612769429        6.2014437029        8.0909104544
 Si        12.4847451159        3.1304223131       14.3888394779
  O         9.1019586892        0.4811394863        7.5053436450
 Si         2.0838678416       13.3851510331       14.5056589376
  O         7.1035499648       14.3031180755       11.3282186960
  O         7.0318765349        7.7665615694       12.8902953564
  O         2.5678885005       14.2929679241       13.2312662348
  O         4.7702706939        8.1048260217       11.3286763908
  O         4.4657939274       14.3018923396       11.3321063921
 Si         5.9918951952       12.6857392752        7.9623756419
  O         2.4922158456        8.3385286314       12.9660197417
 Si         3.1151259402        8.1365377859       11.4673030536
  O         2.4826091693        9.3443730330       10.5800894013
  O         5.7078214101       12.2424718005       12.2367547309
 Si         5.7920269515       13.4006877403       11.0923936181
  O         5.9463390304       12.8197739772        9.5796565697
 Si         2.0470177925       10.8796144372       10.2812013682
 Si         6.4311855593       11.7308585476       13.5930060622
  O         0.9084925749       12.4023186613       13.9623206526
  O         1.7499820599       11.6569535114       11.6534171632
  O         3.2219887621       11.5738157604        9.4330632606
  O         6.7011995733       10.1651339840       13.4728187084
  O         0.7356741887       11.1551550003        9.3464833461
 Si         7.2285844782        8.8013123566       14.1020131004
 Si         0.4220080045       12.1077137328       12.4490089878
 Si         3.2932943038       11.5918073528        7.8237674517
  O         4.8486112175       11.6708513571        7.4476720117
  O        14.6485365977       13.4533850077       11.8333188876
 Si        10.6820240207       13.4530648726       11.3494939456
  O         8.7258873144        8.9278303097       14.7135205142
  O         7.8517775825       12.4829466118       13.6385054479
  O        10.2461245754       13.3013366152       12.8948680692
  O         9.9971168505       10.8383176193       13.5493084117
 Si        14.1564380975       10.5663346954        9.0106261179
  O         9.6658378917       14.4717826260       10.6631204427
  O        14.2181187064       10.9166886211       12.3133522575
  O         9.0134213931        7.9367438536        9.6663431063
  O        11.9257769718       10.0027425357       11.3227206906
 Si        13.4867343397        9.6636059313       11.5895567889
 Si        10.1997621761        9.3872846224       14.1964646236
  O        13.7249575715        8.4316852713       12.5594672740
  O        11.4163742200        7.5247970158        8.5997467129
  O        10.5718183729       12.0838251087       10.5096160702
  O        12.8114375682       11.4149502089        9.3435601992
  O        12.1610585720       14.0529711912       11.3261949037
 Si         9.4282000110       12.3121190423       13.8553144799
  O        10.5739935682        9.9241348092        8.9966733802
 Si        11.4386832173       10.8389854903       10.0141228480
  O        14.0615494044        9.3381470042       10.0886777412
 Si        13.4591660012       14.4879224116       12.1620687256
 Si        10.0871167021        8.4338925716        8.5737374334
  O        10.5940847112        8.3438356856       13.0547376671
  O        13.1499788281       14.4088736881       13.7555716059
