216
14.948 14.948 14.948
 Si         6.1005842177        0.8527451090        5.3726720628
  O         4.5605452704        0.9055865178        5.8929926006
  O         2.0652143301        1.9966424404        5.5713410951
 Si         4.4572377774        5.5112994080        6.0137614565
  O         2.1767754048        5.7304120782        3.1482603734
 Si         6.2511428491        3.6677987312        1.8862850708
  O         5.5465259828        4.4154935209        5.5735005032
  O         4.1574644075        6.3152387825        4.6465264862
 Si         3.0928278592        0.7956943388        5.1942086025
  O         4.9010243430        2.9990240626        2.4802747722
  O         3.4115055129        0.9971321056        3.6331700676
 Si         3.7979700087        1.8350977539        2.3325241040
 Si         0.7714260209        4.9857007623        3.0282936898
  O         6.5619098922        2.2388214241        4.7280413495
 Si         1.1703634411        2.8661885209        0.9162868285
  O         0.6517435784        4.2479255836        1.5806162207
  O         5.9720092283        4.9563142305        0.9363003577
  O         2.5025132504        2.5624669358        1.7478613393
 Si         6.8003088140        3.8152210811        4.7628810337
  O         4.4002766097        0.7613692691        1.3198139297
  O         6.9768443315        4.2348582263        3.2117934119
 Si         3.1473426169        6.9365222783        3.5474337686
  O         0.6625527463        3.9137819995        4.2400881003
 Si         0.6411114476        2.4528068788        4.9313088752
 Si         6.6920411021        6.3882345187        0.6556264337
  O         3.1531777421        4.8092186099        6.7364821468
  O         7.1418399171        2.5703274218        1.0704199989
  O         5.0633555192        6.4957958973        7.1596860700
  O         7.0715117220        0.6618604805        6.6233835053
  O         0.0686285710        1.7345553312        1.1322277840
  O         1.2501505663        6.8756071276        0.1657142940
  O         0.3294275175        1.4132586352        3.7462763538
  O         5.7317475401        7.6517316005        0.4964358078
  O         7.5528422989        6.8153138015        1.9187728293
  O         8.1508016483        4.3085926771        5.4892115142
  O         8.7170945655        0.4215517465        0.6660233410
 Si        11.1108868347        0.3237499209        6.9105938071
  O        14.4460427802        2.3245711541        6.0527206792
  O        14.6076415277        6.1476942161        3.1538047460
 Si        14.3390145672        1.1704968864        2.4740499776
 Si        11.4379081954        2.4538096655        2.3883513540
 Si         9.0529102924        5.6467399072        5.4340961335
 Si        13.4357735821        6.8979141099        2.3390759792
  O        12.5534959372        5.7999388231        1.6504192792
  O        10.6454317726        5.3959569861        5.4824946638
 Si        11.1582169347        5.2380527946        1.1954853582
  O        11.0408112861        3.9651042018        2.1577741940
  O        10.6207744427        2.0068947542        3.7190629675
  O         9.9694251467        6.2269767432        1.5798212268
  O        12.9602100318        1.9907564344        2.6610431873
  O        10.9563157099        1.7477559104        1.0067507426
  O         8.7969930776        6.3914986559        4.0710956391
 Si         8.9723815351        6.9587523354        2.5992324012
  O        12.4753041288        3.9768737875        6.4819900254
 Si        11.4849419578        5.1515027999        6.8348865418
  O         8.7027762669        6.5602188426        6.7310039077
 Si        13.2273875510        2.6789838547        7.0335233649
 Si        10.3031608678        0.2854466173        1.0244667952
 Si        10.3156108286        0.4545269144        4.0048623002
  O        12.0537704535        1.5945371896        7.1448203566
  O        11.1272397524       -0.0098749601        5.3184837896
  O         9.5834653113        0.4932910858        7.4682251538
 Si         7.5807045889        1.4103814846        0.0038719817
  O        12.3828124907        6.3775558046        7.3911217494
  O         3.7412702014        7.5449920890        2.1659406404
  O         6.3158713873       14.6177551264        4.2510789657
  O         3.8996442521        9.5924134591        0.4982749606
  O         1.2332402175       13.7797739136        0.6513890079
  O         3.9994866601       12.5298104655        6.4777488386
  O         2.4062688430       14.3132433095        5.5653830579
 Si         4.1933600170        8.0161934058        0.6838313956
  O         2.4088116620        8.1266115066        4.3226421036
 Si         4.6777568886       11.0666044284        6.2519034199
 Si         2.2814437866        9.6608602009        4.7479799036
  O         1.5828763562       10.3825276319        3.4919803908
  O         3.7310735913       10.2961969004        5.1608289878
  O         1.2493959659        9.7184676868        5.9821063179
  O         6.2441509824       11.0397342735        5.8092247646
 Si         2.5712065908       13.2426826979        6.7855923456
  O         0.7467167526        9.4737850172        1.1565786476
 Si         0.7224830779       10.6339129703        7.1940950422
 Si         0.3521722205       10.4138122245        2.4522892184
  O         1.4154979630       12.1043447785        6.9801029218
  O         0.2446573648       11.9585757896        2.0723395639
 Si         0.2772335435        8.1922668468        0.2446181572
 Si         9.5636980241        9.8810687485        3.5023668315
  O         7.9805057435       12.6765463949        4.9026121785
  O        13.9411009367        7.7421327557        1.0737149836
  O         8.7182014394       11.4624693150        6.9776558233
  O         8.1343246592       13.3738539787        2.4788171103
 Si        12.6031605981        9.3345382663        3.8913963259
  O        11.1775765473       10.1173281900        3.6814095201
  O         8.7793975814       15.1164392846        4.3182882898
  O        10.6252178191       14.7065333691        2.5647241846
  O        14.2809253689       14.5266783025        2.3286190576
 Si         7.7585861492       13.9272958322        3.9444440710
  O        13.3180048066       12.9614022480        0.6667888733
  O        10.5640889113       12.3698912842        1.4937142027
  O         8.2148642062       12.1217225167        0.2561253932
  O         9.4630446584        8.4558055860        2.8144695874
 Si         7.8554998422       11.2587642587        5.6285192526
  O        11.1246141046       14.2776765802        0.0100099080
 Si        14.7590734085       13.3207076584        1.3675241747
 Si        12.7191326651        9.8826511761        6.9509980156
  O        12.8554761622        9.2307221189        5.4838877363
  O         8.6397794939       10.0607316301        4.8372385038
  O        13.8709702472       10.0383397144        3.1531180221
  O        14.0486194463       10.7968160297        7.1494983519
 Si         8.9527816563       12.2196906233        1.6733631700
  O         8.8103892056       10.8722686356        2.4950227982
  O        12.5462098660        7.8195278224        3.3200864742
  O        11.2787826443       10.6318282930        7.0670273999
 Si        11.7212224658       12.8136684694        0.4192012383
 Si         2.8518756105        3.2221700731       13.4774487544
  O         2.8263055833        2.9749700812       11.8827044201
  O         3.0840450932        3.9019229373        9.3738600629
  O         2.5846424271        1.4966109839        9.5433854703
 Si         2.3416806563        2.8542018113       10.3469976444
  O         5.6342758941        6.1294511123        9.7079979857
  O         6.3188402554        1.4933673889       10.5422980567
  O         2.9013941423        4.8269318072       13.8028244401
 Si         4.5955801929        6.8090328036        8.6929737009
  O         4.0613546420        2.2507080007       14.0401016493
  O         0.7572508899        3.1508039635       10.3745236511
  O         3.0648773813        6.3197420584        8.8039637989
 Si         2.5175363874        4.9142744471        8.2482524774
 Si         2.3136597351        6.3435339886       13.9566851161
  O         0.9036794983        4.7396268373        8.3024569613
 Si         7.0393828882        5.6316745863       10.2777734942
  O         1.5948029446        6.7301290533       12.5548505146
 Si         4.5900612861        0.8230233499       14.6710282301
  O         1.4960217743        2.8234637535       14.2842369047
  O         6.9818961886        4.0281789095       10.3751337395
  O         6.2040680531        0.6719328177       14.4504566817
  O         3.5720922521        7.2317908672       14.3652825815
 Si         6.0726511219        0.0002533475        9.9447913896
  O         7.3044600521        6.3230113934       11.7062232516
  O         7.5603882312        6.2233394074       14.2828365296
 Si         7.5208832922        2.5361381286       10.1803852499
 Si        14.8119374470        3.9652658109        9.3172432152
  O         7.9697373550        2.2321430592        8.6394828143
  O         8.2352501580        6.0645498299        9.2940797839
 Si         8.3558506558        6.4343265750       12.9219600068
  O         8.3040003919        1.9982898713       13.6348271315
  O         9.3858309635        5.2357810483       12.7023078735
  O        10.6421999808        3.0316049416       12.9325264940
 Si        10.8225823539        4.6184114443       13.0451807912
  O         8.8064502256        2.3204860022       11.1247850605
 Si        13.0099957477        5.8944706128       11.1022932309
  O        13.8700357011        4.8984108765       10.1980790555
 Si         9.4945036905        1.9845007938       12.5404628236
  O        11.8733651095        5.1453963594       11.9528336675
  O        10.2902967914        0.5819485184       12.4589867386
  O        13.8663243781        2.9838933336        8.4734903691
  O        13.9411566964        6.5649935860       12.2221414873
 Si         9.3504930934        6.2799111524        8.1906522523
  O        12.4458578673        6.9816469340       10.0508761936
 Si         8.0411144907        0.7884997761        7.8837333105
  O        10.3151098917        4.9683351891        7.9773448985
  O        11.2125600975        4.9790809542       14.5623525520
 Si        11.9926227430        7.4194345687        8.5723519929
  O        10.3714512292        7.4807570312        8.5626465339
  O         4.5777753044       14.7928164159        9.3865229273
  O         7.3003784903       14.6964224575        8.8977981447
 Si         2.9757380257       14.9036245452        9.4455373021
 Si         0.2328563549        7.5761732201       12.2861003600
  O         3.6441873046       14.5383558707       14.2101701990
  O         2.1572170652       14.3655285303       10.7157983968
  O         3.9116141072       10.3181012987       12.9068765881
  O         4.4887877824        8.3269950783        9.1343194193
 Si         5.1329644879        9.7760695737        9.0923401804
 Si         3.3938341568       10.6380553182       11.4157490438
  O         2.6514703602       12.0440551180       11.3740494251
  O         4.6367115764       10.6220101676       10.3807506665
  O         2.2340603303        9.6325963106       10.9482653003
 Si         1.5639878072       13.1950401375       11.6150637143
  O         1.1667728605        9.8010910623        8.5375680458
 Si         0.8483524912        9.5634425070       10.1116163557
  O         1.5658560961       13.5284441227       13.1666588874
  O         6.1405809489       13.7787346599       11.0415268064
  O         6.7314860872        9.6401041892        9.1305829664
 Si         4.1734381222       10.8212678257       14.4331288762
  O         2.4924394012       14.1180339361        8.1347076020
 Si         7.2591584617       11.4109831931       14.1304839476
  O         5.7349674992       11.2133733516       14.6179223718
 Si         2.4274138259       13.4790398095       14.5109448635
  O         0.2503040707        8.2217549863       10.7984203087
  O         7.2277406933       12.3745924754       12.8638438525
  O         3.1586414566       12.0447081717       14.7790581557
  O         0.0097174774       12.8905868792       11.2978370699
  O         4.6379381164       10.3945487853        7.7080595523
  O        12.9585943938       12.6261131598        9.6258230382
 Si         7.4425845479       12.9147285322       11.3875132324
  O        11.0574066444       14.3708656421       10.2389265316
  O         7.7250955955       11.7064725578       10.3717183654
  O        12.7127715107       11.3763184884       11.8779737686
  O         8.2975083945        9.3024882324       11.2095798008
  O         7.9760855232       10.0290951338       13.7061617371
  O        11.7037263872       11.6252515325       14.2848885050
  O        10.4477155356       12.2854628483        8.8748475976
 Si        13.7924945540       11.8985622677       10.7960810371
  O        14.6151919414       10.6296934052       10.3055472947
 Si         9.9681803401       11.0814137303        7.9216195964
  O         8.6371982146       13.9704286398       11.2851957583
  O        14.9622146084        8.5504645100       13.6095074980
 Si        11.3570964645       11.4831930061       12.7352750981
  O        10.6346109284       12.8660975847       12.3626846011
  O         9.2127656995        7.8107167615       13.0347949978
  O        10.3786624686       10.2115118717       12.5390671676
 Si         8.9991762858        9.3601040166       12.6497903041
  O        12.7036926717        8.7980710051        8.1484307540
  O        11.8695452116       14.1074031375        7.7247234311
  O         9.3131439259       10.0448464572        8.9669644786
 Si        10.1865481682       14.1919438713       11.5874361171
 Si        11.6165169455       13.3532311580        9.1168910984
 Si         8.0218154706       10.1910212737        9.9124529091
