216
14.832 14.832 14.832
 Si         6.1922442784        2.8341213018        4.6925916480
 Si         3.6327728430        1.7200645602        3.4826101824
  O         5.0952197010        2.4581518571        3.5484087285
  O         6.0162968956        4.3639025336        5.1839909699
  O         2.8033013399        0.9799694774        2.3001081478
  O         6.0933482213        1.9006401595        6.0105214582
  O         1.9798880211        5.5229166813        3.7033631063
  O         0.7529988946        5.8502079494        5.9426395061
 Si         0.9730922988        6.5303268740        4.4464118676
 Si         6.5895861981        0.5750350798        6.7967954553
 Si         1.6830449413        4.1518108631        2.9277328524
  O         2.6548012998        3.0350712708        3.6139347679
  O         1.8088655070        4.5322422893        1.3205741374
 Si         1.3889458573        0.6413805543        1.5633834350
  O         3.9629489403        0.4199743741        4.4493961419
 Si         6.6923412414        5.6191480310        5.9344641425
  O         6.6864115564        5.9752745729        0.8164274220
 Si         7.0640850905        4.4537133139        0.4303318769
  O         5.7741591575        6.9119915990        5.6867781206
  O         0.1737776576        3.6460712705        3.3043816141
 Si         1.1291670010        5.4298425096        0.1005413653
  O         1.3854614955        1.3285595471        7.2368605845
  O         1.6155006524        1.0799041339        0.0186104950
  O         0.2561828496        6.5860536399        0.8295120385
  O         0.0963306141        1.4042589038        2.1449301555
 Si        -0.0099978598        1.3222481620        6.3790202028
  O        14.9149293015        1.3155873158        4.7509391360
  O         7.6540264405        2.6489399526        4.0331401576
  O         7.6666675486        3.3840072209        1.4999252962
  O        14.5004933923        6.6749818840        3.3781203706
  O         8.1610877791        5.9363945560        5.3563049842
 Si         8.5310900589        3.3469672725        2.8757673083
  O         9.9809418345        2.6462491296        3.0334422618
 Si        14.3585222619        2.1637817560        3.4441781339
  O         8.7325493025        4.9300280855        3.0443886915
  O        10.6104181579        5.2744832129        4.7975299818
 Si        11.2912732047        1.6844782785        2.9644176914
  O        12.7417724821        2.3071754086        3.3734031572
  O        11.2848832818        1.2381806792        1.4182105030
 Si         9.2546209009        5.9098708956        4.1797814285
 Si        10.9541941686        4.9988525834        6.3473146900
  O        12.6057638283        6.2710116901        0.9049997269
  O        12.5368458039        4.7850755782        6.5046570617
 Si        13.8661475781        6.9536166901        1.8278445694
  O        14.0906905263        2.7134302779        6.5917965008
  O        11.1247341614        0.4263196831        3.9386782932
  O         8.8247179018        0.4182941469        0.7463651483
  O        10.5353771003        6.3052457656        7.1556503499
  O         8.1753857824        0.4798127014        6.5207962583
  O        10.2173315598        3.6992734261        7.0005240172
  O        13.9224438958        0.0810144117        6.9267260454
  O         9.4756577155        7.3208909039        3.4678732239
 Si        10.1811086488        1.1679656418        0.2512026134
 Si         6.7352766164        7.5729088750        0.5856614657
  O         5.6852573006       14.1868220710        6.2447733588
 Si         3.0666748987       11.4621005642        0.4535809020
  O         1.8068101848        7.9177028195        4.6995647275
  O         2.1391565719       12.2824786257        6.5901460067
  O         0.9844303306       13.9319661840        1.7344296852
  O         3.8758837807       10.2152013523        1.0730980336
  O         4.1382442462        8.8136815405        5.9260952530
  O         5.4434202998        8.0806362957        1.3994661499
  O         3.8670764499        8.7400495667        3.2995275436
 Si         3.0711731847        8.9395846766        4.6898380469
 Si         2.6481733103       12.0357284602        5.0715362434
  O         4.1268205939       12.6748877526        4.8564505129
  O         1.7348659666       11.6139195672        1.4097511830
 Si         5.0077865714       14.0330812719        4.7849885507
  O         1.7244738327       12.6979577058        3.9330158731
 Si         4.7478826295        9.3433608674        2.0948278584
  O         2.5562422543       10.4602121244        4.7801804054
 Si         5.7287270057        8.4841429064        6.0117805417
 Si         0.9316903570       12.5371966129        2.5305139223
  O         5.9319689776       10.2998830097        2.6340812482
  O         6.3287298340       14.0075839642        3.7930478863
  O         6.5905379496        9.3110377919        4.9354477942
 Si         7.1108309606       10.2239407170        3.7295523134
  O         4.0354152166       12.7850373854        0.4204156081
  O         6.5012646832        8.8162082710        7.4079651564
  O         6.3769787600       14.0967708524        0.1528664600
 Si        10.6342323379        7.8815089173        7.3695062966
  O         7.4145986667       11.7155117376        4.2007963344
  O        12.1112571101       10.7124156509        2.6306872987
 Si         7.6990873158       13.1397941407        3.5089237308
  O        13.3338014018        8.4755745483        1.9733805231
 Si         7.9365896246       13.9125655621        0.5286154159
  O        11.7978746158       12.7574733036        4.2035512376
  O        14.2537437390       12.1089208565        3.0456513299
  O        14.0897977068        9.3149545638        7.1671802191
  O         8.4889034738        9.6567511819        3.1328751160
  O         9.1318114426       13.5959429423        4.1052797808
  O         7.9126516015       13.0852177403        1.9083107405
  O        13.1082222575       10.5575104915        5.0144453165
 Si        10.6561081241       13.8670369306        4.5768547022
 Si         9.5157637082       14.7359513602        7.2336566903
  O        11.7015091462        8.5692424805        6.3430128185
  O         9.1576445687        8.4898073512        7.1665350765
 Si        12.8554041788       11.5826760024        3.7524855514
  O        10.5464090682       14.0875911319        6.1734321833
  O         8.1657027718        8.0608543826        1.1664795297
 Si        12.7508706066        9.8228383035        6.4131801566
  O        12.3450739966        9.9737580323        0.1082743045
 Si         9.1943577841        8.4479851300        2.3481494369
  O        10.6299149618        8.8149182157        1.7283141091
 Si        12.0980075161        9.4743858092        1.6166075874
  O         6.3538278911        4.1396386948        9.8104484227
 Si         5.1793603838        3.3593416810       10.5899967525
  O         5.2719080272        1.8049341209       10.3080415203
  O         5.3577403809        3.3728653474       12.1880662802
 Si         1.3909636186        1.1704322665       11.5435956230
  O         2.0510167320        4.3641515523       12.0392442904
 Si         4.6626069156        3.8506653148       13.5470366710
  O         3.7985217713        4.0407153510       10.0538376492
 Si         6.3955727470        5.5590709128        9.0372265718
  O         4.2096785430        5.3596135154       13.1835758337
 Si         2.8094465380        5.7183470275       12.4700640182
 Si         3.4353549791        5.5704352589        9.5968335204
  O         3.0334020327        6.4013997255       10.9889482536
  O         4.8673810661        6.1754709410        9.0671968314
  O         0.4910309233        2.3524606364       12.1834201967
  O         2.7155062088        0.9961159602       12.4508091219
 Si         5.0397674759        0.5827238346        9.3298100108
  O         1.7300195761        1.4032330351        9.9713266727
  O         3.7790108585        0.9817628417        8.3944326713
 Si         2.9625594797        1.4021033477       14.0087686325
  O         3.3851618651        2.9625367325       14.0087730964
  O         2.3045555664        5.5212056705        8.4011441413
 Si         2.1882327064        0.7766892178        8.5431101359
  O         1.9753420225        6.2663695404       13.7759212556
 Si         0.5691593391        3.9256100537       12.4555001508
  O         6.3445317788        0.5063265673        8.3883428893
  O         0.3214645027        4.3548293372       14.0074731738
  O         4.1268727317        0.5838294971       14.7575094019
  O         5.6985555188        3.7878512724       14.7509382559
  O         0.3938880510        7.1703692073        8.0729234715
 Si         0.8705357443        5.7501231444        7.5924988209
  O         0.4965173566       -0.1556730665       11.7036608675
  O         6.8343860180        5.3484728553        7.5060189613
  O         7.5780009335        6.4307073995        9.7249526509
  O        14.5967714043        4.6751148732        8.1388354599
  O        10.7877633907        4.7806313237       14.5736802301
 Si        10.6896681683        2.7297102736        8.2233448810
  O        14.4143524779        4.6999375798       11.4523903382
 Si         9.5896288557        3.9926243223       13.8232102753
 Si        10.5437914853        3.1228937088       11.1586033684
  O         9.6495629664        3.9574651803       12.2062270067
  O        12.0311159234        3.7077735937       11.3663822029
 Si        12.8608045757        5.0764522852       11.5366210307
  O        10.0491196952        3.2153916430        9.6308557004
  O        12.4451430814        6.0715844907       10.3191633975
  O        10.4602389383        1.5689023896       11.5434597020
  O        12.6874683853        5.6927388387       13.0257624097
  O        11.0415970620        0.4855993370       13.9210676948
  O        12.2931697772        3.0420222864        8.4018126654
 Si        11.1738100817        0.3742382989       12.3272052015
  O         8.1526487443        4.6247984414       14.0943921580
 Si        11.7767022648        6.0314006572       14.3294917395
  O        10.2946872440        1.1724985657        7.9257614003
  O        12.7036932784        0.4131276724       11.8610068006
  O        10.8008174372        7.2182131398       13.7610956971
  O         9.6470086193        2.5497355593       14.4979668247
 Si        13.3876153731        3.8248467190        7.4774887576
  O         1.9780032536       14.0303152807        8.5710975540
  O         4.7898012328       14.0865916509       10.2266634785
  O         2.8010206474       11.1163015222       13.7083318619
  O         4.6229814912        9.4688243633       12.7023440173
  O         6.6036907591        8.2314006877       13.9393067642
  O         4.7005692064       13.9176327015       12.9240554152
 Si         5.0846684730       13.2020803798       11.5544802637
  O         2.5398199846        9.9703369646       11.2754436766
 Si         3.5447933896       10.6182081707       12.3439386988
  O         4.2163132223       11.8468730272       11.5338960431
  O         1.9837259814       11.6197278194        9.2275444076
 Si         1.4599024031       10.4388323987       10.1886404026
 Si         6.1592966846        8.9972584954       12.5909868646
  O         1.0768341223        9.3043182673        9.1409942359
  O         6.6496581921       12.8662063160       11.7238291244
  O         6.4927355842        7.9889744141       11.3824750077
 Si         1.5227636689       12.6004892286        8.0466438234
  O         7.0028807798       10.3118697989       12.1902043332
 Si         4.8396440373       13.9998734963       14.5142682858
  O         0.1629735675       10.8029991575       11.0466175391
  O        -0.1032078632       12.6621057264        7.9817670193
  O        12.0199656026       10.8922196319        7.3385441418
 Si        12.1922230297        7.6540586123       10.0544996989
 Si         7.8675658628        7.7776636530       10.5656099381
  O         8.9749257081       13.5080134556        8.1639656791
  O        13.5433444341        8.3972932832        9.6338101926
  O        11.6921909057        8.2260818937       11.4541698212
  O         8.2449333564       10.8815355098        7.5884674432
 Si        10.4529814791        8.1636533591       12.4819292899
  O        13.9258846711       14.6711357325        9.5612588937
  O         9.1302107385        7.7456437670       11.6192737628
 Si        14.6577615578        8.5725803522        8.4889230766
 Si        13.8545651281       14.3772615032       11.1579617780
 Si        13.6840451041       13.8971522202        8.1662948694
 Si         8.8197475764       11.9703969704        8.6633222897
  O         8.7288926305       13.1826534780       14.1703479284
  O        12.8492720959       10.6171014497       12.5185396856
 Si        11.8127786374       11.7179423939        8.6828719325
 Si         9.8114771617       12.7303158498       13.0726578533
  O        12.6909000612       11.1146308948        9.8764646463
 Si         7.9719310726        9.3053275404        7.9048345088
  O        10.4453959192        9.6389537455       13.1115837488
  O        13.5098854327       12.8767775809       11.5333602987
 Si         7.6178633242       11.6113977251       11.4680084961
 Si        13.5040065810       11.3129683299       11.2459787198
 Si        11.6741042478       10.5618997827       13.6080865063
  O        10.3808128186       13.8396427109       12.0331821578
  O        11.1208299676        7.9977601712        8.9047626873
  O         8.0807618010        8.9750331296        9.4891086524
  O         7.8141744912       11.7082727245        9.8811748394
  O        12.2073942087       13.2551320863        8.3231867903
  O        10.2957118555       11.5440903135        9.1419845577
  O        11.0419710116       12.0274421592       13.8417813352
  O         9.0665798227       11.7083636297       12.1116689904
