216
14.992 14.992 14.992
  O         5.7060959453        2.1741231646        1.1775173194
 Si         3.2285224023        5.4814070585        1.1927984277
  O         4.3002343636        4.2881577640        1.5508604914
  O         3.7395425661        6.6464672854        2.1863100960
  O         1.7071889802        2.1161846550        4.7720289028
  O         1.0891234564        1.1708781401        2.2150812708
 Si         1.7180492044        1.6124846710        6.3364019806
  O         3.5393652175        0.8558073517        1.8663364272
 Si         5.0277928407        1.1989580396        2.2787531460
 Si         2.1442712898        0.6706575395        1.1104158152
  O         1.6127475172        5.2175962050        1.2562914995
  O         5.0822451499        1.8838040903        3.7458327199
 Si         6.3287712656        2.4517787530        4.6037782254
  O         5.9531923836        2.4265564487        6.1964930440
  O         6.3197628163        6.2605704067        2.9677423955
 Si         0.6196610454        1.5145160234        3.7098603647
 Si         5.5598744666        3.6928699411        0.6968588048
  O         6.7936375936        3.8908749865        3.9978911036
 Si         0.3094342768        5.6724137064        0.3538553967
  O         7.0416849081        4.3746345258        0.7706516735
  O         2.5711183916        0.2351852578        6.3306289075
  O         6.7936196811        4.6097505773        7.1829663672
 Si         5.1779537628        7.3337700336        2.5348514317
  O         0.1664987772        1.4082247847        6.8603309272
 Si         7.4360370154        5.3629018770        3.7304515928
  O         7.5773774693        1.4681915264        4.3682577430
  O        15.0677547794        0.2287390590        4.5278473118
  O         7.7311044135        6.0219059714        5.1659535085
  O        14.3723735156        2.4991430976        3.5042474475
 Si         7.9719966350        5.5823591205        6.6858637265
  O         9.6935820045        4.5292473839        0.7707483135
  O        10.5424460747        2.4171151446        6.0997906677
  O         8.9063259869        5.3217171835        3.0379240873
 Si        13.1989106095        6.0130571474        2.7392244505
  O        13.5014955246        3.2720366369        5.8730675359
 Si        11.1509893874        1.5831292429        4.8655207810
 Si        13.2655516315        3.3558550948        4.2756512153
  O        11.7959771816        2.7372388663        3.9080965204
  O        13.5123626756        4.8549623328        3.8060631100
 Si        10.0640841066        5.6219860944        1.9303768973
  O        11.6239352425        5.6909468219        2.4125499899
  O        14.1385203393        6.0868702049        1.4086566520
  O         9.9902226049        0.6181895211        4.3000549581
  O         9.9168814827        7.0989364907        1.3355329168
  O         9.3722839328        4.7615602382        6.8682521190
  O        12.4183310959        0.6353410297        5.2285813623
 Si        14.0598365733        2.5617450381        7.2077543129
 Si         9.7267388713        3.2144909493        7.2278531208
 Si         8.4503441366        0.1210925809        4.4491491258
  O        13.6710909206        7.3588355096        3.5075020951
  O         7.9570278384        0.0111908085        0.6123236244
  O         8.3007106931        2.4741451621        7.3987189353
  O         5.8622346648       14.8308634729        2.2603224548
 Si         2.5332814559       12.6278182104        0.6976842301
  O         5.6249388401        8.0366750601        1.1575172051
  O         1.4829752491       11.4054050026        0.9597141698
  O         4.7662317890        9.5187075392        6.1087206012
  O         4.9219810674        8.4407952851        3.6795922351
 Si         2.5872401964       13.6482774369        5.9578664090
 Si         5.2507695965        9.7470970743        4.5739241932
  O         6.8617460800        9.9802849296        4.5398153074
  O         4.5897896846       11.0952576738        3.9797609404
  O         3.5866912350       12.5640125715        1.9504460157
  O         3.1996653261       13.3412073576        4.4760012774
 Si         3.3898655030       12.0565097885        3.4902833512
 Si         0.8754875047       10.9789855439        2.4088500329
  O         2.0363201760       11.1651205647        3.5136411748
  O         1.1175031139       13.0479794923        6.0778652919
  O         1.8772197938       14.1148826732        0.7203275818
  O         6.5453204452       10.3277232290        0.3971953284
  O         3.4320278483       12.8113451132        7.0385534664
  O         6.9463587326       12.7332613615        1.1678012986
  O         5.8360046911       13.6536875997        7.1977916781
 Si         7.2553868952       14.1774472798        1.8052027201
  O         0.3204413225        9.4559628013        2.5163189309
 Si         6.5514356907        8.7577502984        0.0803685988
  O         1.0393758456        9.2792318286        7.4777561347
 Si         7.3901058820       13.3409507251        6.8884655637
 Si         7.4353085307       11.6315373767        0.1058580123
  O         7.4110674173       11.9254698869        6.1565421477
  O        13.5065106969       13.1890103046        0.6329569037
 Si        10.8096289999       10.1935698536        6.0154256833
  O        12.1682867765       12.1798449752        2.6594945850
  O        10.4617702301        9.2861498039        0.0011867277
 Si        14.6889957494       12.7818717249        6.7493429076
  O        14.7487643188       12.1034487319        2.7321061668
  O        13.5888136061       13.4433490817        5.7670336919
  O         8.0370638414        8.2086141413        0.1531320088
 Si        14.1782571813        8.8863673429        3.5631580862
  O         8.1330341660       14.1423564411        3.1796619799
  O        11.0797194480        8.6231148315        6.4818837873
  O         9.3761218525       10.4667716001        5.3807757354
 Si        13.5660008003       14.6291844953        4.6780148388
 Si        11.7593623170       10.7691069861        3.2512896984
  O         8.9854226048       11.4019403978        0.3945977807
  O        12.8852985647        9.6709924294        3.0308494957
 Si        10.3755087200       10.7093398453        0.7297903789
  O        14.4409505288       11.2074610369        6.7264007649
  O         7.7465550357        9.4468616561        6.9526482147
 Si        14.7202948621        9.6405932464        6.6155917912
  O        14.7478493629        9.2085280017        5.0537811768
 Si        13.4812005521       12.9701079381        2.2364602927
  O        13.5064933077        8.8984015727        7.3523494432
 Si         7.8242539329       10.4539743912        5.7347855791
  O        10.4653565586       10.4515852256        2.3376281181
  O        11.7021753557       10.8423538998        4.8534831520
  O         8.1208077735       14.3714816149        5.8677450082
  O        13.2803162931       14.2944251822        3.1198156238
 Si         9.5975624138        7.9439866578        0.0275392584
  O         6.0132740022        5.0105414188       10.3846168786
 Si         3.9449954028        4.6669093488       13.4880619446
  O         4.4689728175        5.6098859919       12.3308662202
  O         1.6353753243        1.3238969874       12.1793232788
 Si         5.5329086823        1.1848651785       12.3071593805
  O         1.1717404211        2.2683285919        9.8165913257
  O         4.1426400854        1.3352242569       13.1253629269
 Si         2.6500940068        1.9457052121       13.2787489881
  O         2.8020563677        3.5710663738       13.1143039283
  O         5.9276382252        2.5674391223       11.5448344411
  O         1.7964378740        6.0814698301       11.5586307754
 Si         5.0817792782        6.1789204744       10.9656872571
  O         3.8469003860        6.4128640322        9.9755188207
 Si         6.6286247728        3.5266529009       10.4488949132
 Si         1.3770951328        3.3589899993        8.6505187765
 Si         2.2683187891        6.1116134329       10.0027864475
  O         2.0192803673        4.6896043627        9.2814434637
  O         6.3333986662        2.8134017216        9.0036924555
  O         6.7861200338        0.8442295304       13.2897466911
 Si         1.3666683143        0.8981697869       10.6255657376
  O         5.1600771813        3.8180306529       14.1336291568
  O         0.9252668518        6.7134065841       14.2312111010
 Si         0.8256278060        6.8680412058       12.6012355578
  O         2.1074073609        1.5664912119       14.7571124082
  O         3.4491971241        5.7156581639       14.6050492122
  O         2.7375055655        0.2367343050       10.0649953008
  O         5.1528475431        0.0057462952       11.2478732310
  O         1.5738211611        7.3378538478        9.2042999679
  O        -0.0975223306        3.6732584511        8.0462381471
  O         2.2646743376        2.7245818199        7.4124729860
 Si         6.7841173121        3.0308904705        7.4644935447
  O        14.4440212188        4.6743494978       14.3740285466
  O        12.8757045430        1.8774827782        8.0539461746
  O        14.3713315570        6.1785784347       12.2584440444
  O         8.1895790236        3.8064614960       10.8571962039
 Si         8.0988890187        0.8994881712       14.2650110655
  O         8.4321833586        4.5420163134       13.4140053371
  O        10.0023129038        5.7133695083       11.6220763213
 Si        13.5155771312        5.0747285375       13.0993006711
 Si         9.2149143841        4.3434451163       11.9977086482
  O        10.3963057241        3.2721716700       12.1804928135
  O        13.1164653179        3.6785774807       12.4093163655
 Si        11.8941739802        2.6879514963       12.0690905870
  O        12.1767798452        2.2570988801       10.5422641645
 Si        11.6178064671        1.9526384157        9.0684451416
  O        11.8672974405        1.4554268208       13.1158280222
  O        12.0840560595        5.7894104219       13.3589965047
 Si        10.9516666616        6.6409608943       12.5666250173
  O        10.7678879944        0.5655072589        9.1423576696
  O        10.6138625584        3.1236903560        8.5763715250
  O         9.3827288142        0.3887914296       13.4375619379
  O         8.4288053341        2.3872272789       14.7688679153
  O         9.9255660832        7.1837206733       13.6641166101
 Si         8.4102106517        3.9771470631       14.9371910125
  O         7.8203918308        6.8782844045        7.5740608399
 Si        10.9401119909        0.1231799164       13.1167106260
  O         5.8612167602        7.5836568229       11.1724959872
  O         5.1515339908       11.1661630900        8.1158961854
  O         5.9143044523        8.6000673802        8.3693334039
  O         3.4260154997        9.1440689124        8.4227889761
  O         6.0756854532        8.5084376981       13.5538453070
 Si         3.8597259843       14.2131720830       10.6304742408
  O         2.8088060888       10.7005298617       12.1907855858
  O         6.1568411396       10.3185820006       11.6255044692
  O         1.1845679366        8.4176905823       12.3324415296
 Si         3.4416943961       12.1332569317       12.6615621639
 Si         6.5157851890        8.7872767796       12.0335678127
  O         1.4850960439        9.7701106181       10.1030225294
  O         4.4453001085       13.2800955801        9.4524539815
 Si         1.4590846113        9.8933193028       11.7261217357
  O         2.9656192347       13.3498747893       11.7014829435
 Si         1.8795926455        8.8825039032        8.7943598111
  O         3.1281060444       12.4070695820       14.2168848111
  O         5.0304599893       12.3352325612       12.4912297602
 Si         6.5038934500       11.8392755272       12.1211923941
  O         7.3396069188       11.9478049520       13.5084839864
 Si         4.7297153065       12.7317683129        7.9655504130
  O         0.2174021441       10.7118074055       12.3307340702
  O         7.3302773019       12.7372547197       11.0193631718
 Si         4.8036328166        9.6150246788        7.7413150749
  O         0.0780478023       14.9093784296       10.3830016860
 Si         7.4831177748        8.3460797473        8.0651704969
  O        10.3074106129        9.8390980339       10.9340793084
  O        11.8731836051        8.6760148899        9.2840922851
 Si        14.1700684746       13.6862912358        9.7570978167
  O        11.7095187056        7.7942802094       11.7238791194
  O         8.1184972487        8.8991517704       11.7826558759
  O        11.5591823126       14.0389617951       14.1320373648
  O        12.8276270898       10.2245560089       11.3177547779
 Si        12.4606881003       12.7447878160       14.4564814855
 Si         8.4105812919       12.5361411952        9.7866830218
 Si        11.0517784702       14.2519018619       10.0687955073
  O         8.5094059019        8.4992297044        9.2921646707
  O        11.0128685555       14.5373334108       11.6352403235
  O        12.5735949445       13.9039689213        9.6800927205
 Si         8.8133642920        9.5502840894       10.4593506735
  O         8.0313680735       13.1955136106        8.3620246333
  O        11.3971792284       10.6955312192        7.4806923963
 Si        13.8298283883       11.3878099873       11.8723802472
 Si        11.7383434842        9.1369139877       10.8374397755
  O         9.9187395737       13.1104013882        9.9284129493
  O        13.1897281822       12.1857481018       13.1230744840
 Si        11.9868177334        9.1606693039        7.7640130651
  O        11.5596724158       11.5633565207       15.0681560706
  O        14.6775431420       13.3529731776        8.2627423276
  O         8.3627975234       10.9283537624        9.7570528490
  O        14.2895029269       12.3971456497       10.7082668372
