216
14.865 14.865 14.865
  O         3.6295303002        4.9668178496        1.3204998553
 Si         2.0662096413        2.2621196483        3.9598620557
 Si         1.1833441416        2.4976882731        1.0456532458
 Si         4.9826690082        1.9895939100        4.3219731323
  O         3.6331442623        2.6416612813        3.7096470317
  O         5.4650274105        2.8035248306        5.6184684842
  O         1.1471502383        2.5657565040        2.6697392546
  O         1.5657661292        3.1415504752        5.2010134331
  O         6.2030261682        1.9025227620        3.2932638748
 Si         6.2374607569        1.7351491691        1.6900795350
 Si         3.6488954991        6.3570822006        2.1346838836
  O         4.3710084686        6.0340523674        3.5455267736
  O         4.4551176805        6.0288295369        6.2016566254
 Si         3.9285183431        3.5736333855        0.5689106499
  O         5.1334781142        2.7320918300        1.1566470396
  O         2.0577384635        0.6771207446        4.3660279108
 Si         4.8651210106        6.8005876170        4.8665064790
  O         2.7203537718        2.5495478885        0.6563335751
 Si         6.9135476097        2.9023612796        6.3043632851
  O         4.6295367306        0.4953864314        4.7866046009
 Si         1.5032384829        3.5849044269        6.7498108850
  O         0.5701316666        1.1356531245        0.5060201102
  O         2.1600495654        6.9420267488        2.4046082335
  O         6.0406305564        0.1738406056        1.3262580360
  O         0.4953684151        3.7262605941        0.2513736158
  O         6.4686389056        6.9418296307        4.7823938394
  O         2.7089142806        4.5314479691        7.1876490423
  O         0.0762743335        4.2956246044        6.9353749570
  O         2.9753906671        0.0973446006        6.7620555492
  O         7.5781038704        2.2067142929        0.9935054751
  O         7.5248320754        1.4754588729        6.7639334662
 Si         8.9414087114        0.6994521797        6.7124357678
  O         9.9260646263        1.2978450174        0.4258429733
  O         9.8928803075        4.1133619373        6.9465128877
  O         7.9486476176        3.5688263798        5.2714911647
 Si         9.0950366153        2.6350119362        0.8474775862
  O         8.6694361881        6.0263349148        5.8603668455
 Si        11.9112864781        5.9512674202        1.9609374203
 Si        10.7805566457        3.5278311055        3.2532109350
 Si         9.1770259951        4.5562820220        5.5907840918
  O        10.2300779179        4.5332875173        4.3839029626
  O        11.5683072806        2.3099275756        3.9650117798
  O        11.7226358522        4.3906191711        2.3021738820
  O         9.5785326805        3.0472146887        2.3179157058
  O        13.5402659063        6.0238312244        5.4578194636
  O        13.3016349340        6.2785310939        2.7228974832
 Si        11.3997284829        1.4958256895        5.3542849951
  O        11.8206049309        2.3985664878        6.6162548253
  O         9.8198126436        1.1574913088        5.4465103435
 Si        13.5692583024        6.9920828550        4.1575532982
 Si        13.7469409121        5.3752200121        6.9379193126
  O        11.8237749945        6.0975909502        0.3567794419
  O        10.8770142413        7.0166177651        2.6394466605
 Si         7.5738662717        7.1595965268        5.9358865147
  O        12.2899377501        0.1751463705        5.4570385769
  O        12.3914714435        4.7083267317        7.5159542415
  O         0.1640894725        7.5966473877        3.9755160720
  O         4.4433596085        7.5108421185        1.3401865279
  O         6.4330683550        9.8530883577        6.8414033240
  O         6.7794516041        7.2618887678        7.3366831673
 Si         3.2057353518       14.7446161109        5.1970059140
  O         6.7760471726        8.1726121577        0.5794704971
 Si         0.8175585490        9.5167489854        0.1983065969
  O         1.5017317601       13.5400208872        0.5775113081
  O         2.3010400363        8.9099389587        6.7070039546
  O         3.7260989087       12.2077940409        0.9939626879
  O         4.2162415499        8.2616178173        4.9510909292
  O         2.0681122813        9.1755562339        3.9593827601
 Si         2.9940349725        9.2552267576        5.2743737914
  O         5.2818572227       10.0793333870        1.4881508296
  O         5.7044689067       12.1415383144        5.6955033839
  O         6.3664199357       12.4738295695        1.4834625499
  O         4.7149968161       11.7242242206        3.3295352349
 Si         4.3384180371       11.9696032504        4.8444409233
  O         3.5475124301       10.7329255543        5.4549473579
  O         3.2994973412       13.1935178219        4.8850964238
 Si         5.0165373042       11.6377665602        1.7792723171
 Si         1.2703068207        8.1740876923        2.9744578633
  O         0.6494096388        8.9951392615        1.7245994336
 Si         6.9201028380       11.2718638634        6.2948576645
 Si         5.2689144718        8.7084992938        0.6659806248
 Si         7.0487242811       13.8289759912        0.9312863740
 Si         0.1647814493       14.4541759061        0.5054835920
  O         1.4145866028       11.0075829388        0.2390328524
 Si         2.3984308013       12.2831471148        0.0808132107
  O         8.5691626837       14.1255444491        1.4841622301
  O        11.2361588652       14.5323210843        2.1523010480
  O        12.8900787219       13.2044908147        3.8775486632
 Si        10.7778735342        9.5403932496        0.7777836105
  O        10.6470784778       10.9935589220        0.0700413447
 Si        12.6871759355       13.4812872932        5.4817196340
  O         8.4116955116        8.4954824461        5.8722854512
 Si         9.1802304943        9.7644770876        5.3411769970
  O        13.9745072802       14.2946188462        1.7345036236
  O         8.0924684639       10.9740203703        5.1927512397
  O        12.3816189973       12.3854542912        1.3086186164
  O         9.4080720841        8.6827507513        0.9647621574
  O        12.4525641881        8.1750370490        4.3031153589
  O        11.5592142922       12.4672348732        6.0253836360
 Si        11.0687648832       11.4106591094        7.1497925731
  O        11.4907778164        9.5813781384        2.2179812355
  O        13.8688222020       13.2976227438        6.6107601584
 Si        10.0528738884       14.6394108453        1.0035297904
  O         8.7503875137       13.9751002771        6.6841945996
 Si        11.1740026529        8.4677784759        3.3448485312
  O         9.9185501309        9.1722718199        4.0511173709
 Si        12.6186904730       13.6284890261        2.3265371435
  O        10.2434179749       10.2401655800        6.4361320418
  O         5.4561420409        2.9814552770        9.6535103008
  O         6.0460613024        2.8053847842       12.2192249044
 Si         5.5716124862        1.9842489049       10.9014134771
 Si         5.5077120268        4.1137893364       13.0042303287
  O         4.1270222656        1.4073619923       11.2392011436
  O         1.5486375536        1.3336411167       11.3218518335
  O         2.6504207506        5.8635281133       10.9049650309
  O         5.0613912212        5.1835761307       11.8781268295
 Si         4.0287384537        6.3884127436       11.6060471528
 Si         6.1031879286        4.2702522462        8.9499549076
 Si         2.8520551457        0.5466797806       10.8296371068
 Si         1.1173338398        5.3688271200       11.1731912612
  O         0.8844528591        5.1827714114       12.7882876646
  O         6.6096809617        4.7027221045       14.0379361373
  O         4.8710016391        5.2852562299        8.6732305797
  O         6.5067541130        0.7536062889       10.4761876701
  O         4.2017679747        3.8092716600       13.8707420126
 Si         0.3750721521        2.4257205676       11.2161595429
  O         0.8272762342        3.8665497361       10.5690934879
  O         2.8095600716        6.8603136783        8.2502741001
 Si         2.0125349016        0.7376488904        7.8646339827
  O         2.7342893816        0.4101798051        9.2445222636
  O         3.5492836770        7.0065502854       13.0174448655
  O         1.7304151994        2.3022306594        7.6831725699
  O         6.7687607109        3.8827423862        7.5469795523
  O         4.9538509379        7.5124098886       10.8315778829
  O         7.3442318585        4.7929903006        9.8354399509
 Si         3.7241569508        5.6848397785        7.5938439829
  O         0.0920496046        6.4444216195       10.4924051208
 Si        -0.0011932133        4.0811312053       13.6218277835
  O         0.5730941033        0.0752935282        7.7609278102
  O        14.7853553866        2.7382048059       12.7287754376
  O         7.5884049998        7.0306886835       11.0672219709
  O         8.5138117528        6.5110432541       14.4523054862
  O         9.8337840480        0.9883955669        8.0189108574
  O        14.0302748792        1.7284015458       10.3978971003
 Si         8.2016481350        5.0114674803       13.8990142042
  O         8.4284749963        4.8800165279       12.3047603850
 Si        12.4294278789        5.9103575338       13.7341999811
 Si         8.2859036889        5.5916415255       10.8599401276
  O        11.3787581975        5.6063771940       12.5426305267
 Si        11.0779046418        6.3330568022       11.1191796003
  O         9.8177691634        5.6948528615       10.3275258941
  O        12.3800613934        6.3637450125       10.1596026204
  O        10.8300399437        3.0638369429        9.0646539778
 Si        10.2666920629        1.5837374300        9.4509140594
  O         9.0016938709        1.2470655999       10.4147326019
  O        11.4727899259        0.9112786925       10.2340613452
 Si        13.7498475404        6.9724258339        9.5245266992
  O        13.3817779911        4.6379637826       13.7921746790
 Si        12.9948747160        0.4748781882       10.3465512805
  O        14.1015018698        6.5123641125        8.0202761426
  O        13.2259024205        7.2592598595       13.2890549528
  O         9.0927749333        3.8954305196       14.6885489648
 Si        11.2597090781        3.5758575928        7.5746762268
  O         4.5834252946        8.5858696882        7.8441202529
 Si         6.4655266434        8.1457982343       10.7569878027
  O         6.6914727856        8.8382714840        9.3296357069
 Si         3.0294826206        8.4554298181        8.0947675456
  O         2.8769266279        9.3267898113       12.0487929305
  O         2.9758095651       12.3116180906       13.4290185434
  O         5.3664292970       12.9797249602       12.3147534052
  O         2.9841616303       13.9541896055       11.4807206659
 Si         2.6754254056       10.2457036638       10.7465594309
  O         2.7279086059        9.3309703221        9.4108953346
 Si         3.7888677458       12.6830390805       12.0708245355
  O         3.7144108208       11.4739825070       10.9788669473
  O         1.2270352894       10.8909441830       10.6607812877
 Si         3.2063554235        8.5291009561       13.3960905832
 Si         6.9326857397       13.0410284082       12.7571837688
  O         1.9185185018        8.5738914966       14.3585762315
  O         4.5405486924        9.0855502243       14.1267535827
 Si         6.1528994699        8.6591668703        7.8481632105
  O         6.7626102424        9.3996877312       11.7189679747
  O         7.0981216976       13.7117041706       14.2013501954
  O         0.2375543818       12.7181018415        9.0726555263
  O         7.5140863701       11.9756128184        7.6083980325
  O         7.5320430979       11.5513070651       12.8089283736
 Si        14.8401328317       11.8255609730       10.4089679007
  O        12.2196410457        9.5875175397       12.3852798736
 Si         7.9343124964       14.8834723275       10.4884007443
  O        10.5683586865        7.7923731683       11.5644735927
  O        13.2195978681       14.4480190053        9.0054791750
 Si        14.3839659345       13.7978803600        8.0830047618
 Si        11.5320859624       12.3472715387       14.7845905141
  O         9.4959328658       10.1678784337       11.7286079724
 Si         8.0371540440       10.0781071556       12.4397318911
  O        11.7941343232        8.7284837520       14.7256465770
  O         7.8552977892       13.9544970466       11.7989538409
  O        13.5123279539       10.9933388327       10.1479893806
 Si         8.2622413496        8.0654888958       14.8558613250
 Si         8.6741717490       13.0078913160        7.9800285406
  O        14.6154595427       12.5660123649       11.8206559001
  O        13.0441581439       14.5276277495       11.7331623652
  O        13.5446694851        8.5781557813        9.3350397199
  O         8.2516041362       13.8756079732        9.2627385698
 Si        12.6838499905        9.9522594439        9.2754959438
  O         8.3463469079        9.0776129597       13.6340267937
 Si        12.9385932656        8.8145710387       13.6251798507
  O        10.0835785337       12.2230080509        8.1705098502
 Si        10.8704255979        9.3606560603       11.4719370616
  O        14.2905150639        9.4970726104       14.2079406410
 Si        13.5942520089       13.4033261957       12.7452205327
  O        14.3599316362       14.1209586316       13.9534157647
  O        12.4673362663       12.4607339737       13.4597713175
  O        11.2510266139        9.7381098049        9.9639057176
  O        12.3195965591       10.6584038571        7.8582361912
  O        10.5607577663       13.6351057317       14.7047183270
