216
14.903 14.903 14.903
  O         2.9821687269        4.2239396340        2.5659308462
 Si         4.0914384187        4.9518495210        3.4801183238
  O         4.8859565635        5.8743321381        2.3946792505
  O         3.3963593630        5.6234994713        4.8017425378
 Si         5.8007315618        2.4473074509        4.1154468718
 Si         1.6128503663        4.2160051299        1.7457857083
  O         0.9179567232        2.7661037128        1.7553041949
 Si         1.1408570615        1.4233146944        2.6015908474
  O         5.1186709702        3.8990648749        4.1373305329
 Si         2.8742844684        5.4638049896        6.3476716610
  O         4.7211749704        1.3114774406        4.4735241590
  O         2.8116582384        1.4181120540        6.2915597403
 Si         3.1748578559        0.9845771832        4.7854038394
  O         2.3192485003        1.7346472604        3.6493781571
 Si         5.6792884068        5.9022454678        0.9536111782
  O         6.3864139290        2.2386731982        2.6445521543
  O         1.4336608007        6.1787890164        6.4599779609
  O         7.1978207084        6.3787628304        1.3255282305
  O         2.5704156438        3.9517815787        6.8656671527
  O         6.9536907146        2.3989401724        5.2268249140
  O         1.4959361911        0.3288416056        1.4913251768
  O         0.5611175807        5.1634039759        2.4993670146
  O         1.8230496174        4.6137908462        0.2070315217
 Si         7.3351839459        1.9884170981        1.3753439162
  O         3.9548618263        6.1336941916        7.3601315319
  O         5.6202254239        4.4527117016        0.1791458199
  O         6.3711046732        1.9127385657        0.0727028291
  O         7.2984283238        7.0459779232        5.4514337085
  O        14.7377508736        1.0626130125        3.4752676296
 Si         7.8159671186        3.1679207930        6.3434947683
  O         8.1932860489        0.6662726984        1.7348051368
 Si         9.6428471677        4.0281382844        0.6932931802
  O        14.1633906560        3.5044424420        4.2288810162
  O         8.1110172730        4.6481536500        5.8656563439
  O         9.2052534667        2.4018639791        6.5277762132
 Si        14.0719530076        4.7647053300        3.2088909550
  O        13.6593579847        6.1230718549        3.9667940656
 Si        12.2795723308        2.8877339500        1.7913059760
  O         8.6061731260        5.8827349058        3.5707073409
 Si         8.5168587213        6.0156561765        5.1730166906
  O         9.6148865538        5.5287630131        1.2438001381
  O        13.0036764331        4.3127492743        2.0740799563
 Si        13.5783082490        1.9808714886        4.1165514103
  O         9.9341526527        6.4618207260        5.8030196383
  O        13.0056817344        1.4133103286        5.4833419271
  O        12.3176904872        2.0012509020        3.1257962275
 Si         8.6390443476        6.4873258879        2.0703031336
  O        10.7668418963        3.1442717921        1.4028483554
  O         8.2822740233        3.2392995135        1.0034196621
 Si        11.0467722477        6.6998208470        6.9523927138
 Si        12.9340506983        1.6860237597        7.0662664427
  O        13.0831533279        2.0642064512        0.6687634860
  O        11.9901078127        5.3814886181        7.1106418106
  O         4.8894716654       11.1773542833        6.9588860878
 Si         6.1884433478       12.1317373834        7.0967736650
  O         2.8128276807       14.3308182742        4.6300682560
 Si         3.7892216564       12.9888202912        0.6691136506
 Si         4.4572474136        9.6669156691        6.5928760869
 Si         3.3323146098       13.0734199061        3.7840515092
  O         1.0616226023       11.0394299819        6.3508167578
  O         5.5574289092        8.9429348854        5.7113895753
  O         3.1350178385        9.7638109454        5.6980447626
  O         2.3882364470       11.8288136067        4.1380838764
  O         1.5907833921        9.9460960003        1.6712443282
 Si         6.3356785296       12.5085640161        4.1080540361
  O         4.3080135747        9.8519822794        2.3197847297
  O         6.4525246783       11.1023108175        3.3166604929
 Si         5.9254133070        9.8023150062        2.5109620171
  O         3.4877773992       13.3945807772        2.2109853365
 Si         3.1373719922       10.0325334369        1.1918191615
  O         4.7861923277       12.7553774642        4.3083051155
  O         6.2910389395        8.4424727512        3.3108599388
 Si         1.9132350928       10.5968004045        5.0736500169
  O         0.9865635212        9.6854552971        4.1336219044
  O         6.8046129044       12.5770905322        5.6540073057
 Si         6.7778331922        8.4393233185        4.8520750914
 Si         0.3335117622        9.6496641801        2.6532196304
  O         6.7790953166        9.7649214778        1.1503422870
  O         3.4768233434       11.4320875396        0.4938751954
  O         7.0449911056       13.6577631070        3.2281282136
  O         5.2949335050       13.3367495674        0.1705396977
  O         3.3182522466        8.9238419374        0.0806419662
  O        14.5635327012        8.1814568771        2.4111273222
  O         9.3627197416        7.9555914862        2.1467531509
 Si        12.4623563105       11.1153906425        2.0912014902
  O         9.6122862652       13.5703072103        2.8250976200
  O        14.3939172676        7.7884644644        6.7826287177
 Si        13.2403233127        8.7047626926        6.1730917294
  O        12.5790515529       11.8324343881        0.6638280903
  O         7.8626203407       13.2462666092        0.7388820552
  O        11.8402510983       12.1683735913        3.1462511699
  O        13.4143642639       10.2506750787        6.6234594873
 Si        10.4750870391       12.6411667069        3.8624243376
 Si        13.3927071178        7.6043796062        3.3878407962
  O         9.6822089563       14.7546602769        6.8577489544
  O        10.9351393000       13.2474165356        5.2878891578
  O        11.9221317369        7.5317718845        2.7235125154
 Si        14.6175048274       11.1775147740        7.1967434127
  O         9.5166650080       11.4189522167        4.3137200763
 Si        10.6000287737       13.4506783904        6.8499299658
 Si         9.4288215226       10.0060123301        5.0985067832
 Si        10.7289287082        8.6183512492        2.7560890861
  O        13.3255200876        8.6887318826        4.5687581011
  O        10.4316736954        9.0249710603        4.3053089713
  O        11.8552031418        8.0385536518        6.6094600804
  O         9.5967886876       10.0250663755        6.7211246571
 Si         8.2008525281       14.0001811640        2.1398352534
  O        13.9843899212       10.6808397714        2.4852063347
  O         7.9409719910        9.5165138992        4.8911472215
  O        14.2414552481       12.7435563951        7.1139667512
  O        11.3482799534        9.9172569693        1.9898210025
  O         2.1415311321        3.5693666030       12.6748778162
 Si         2.7401208266        0.8212773238        9.9458930526
 Si         2.8790645661        2.1401550291       12.8657758870
  O         3.0630157183        1.4758294340       11.4023160247
  O         2.4163033559        1.9878390169        8.8427394866
  O         4.2307068678        2.4838020815       13.6705658299
 Si         1.0918023936        4.2460968064       13.7028234912
  O         6.3752982763        3.4714736268       12.7453344828
 Si         5.6410994595        3.1122162641       14.1368807242
  O         1.9995911083        1.1744848981       13.8226864811
 Si         5.9376144337        2.4775698923        8.5717340781
  O         5.7161350586        2.9816749541       10.0998974327
  O         6.2840520043        0.9097000645        8.6042792722
 Si         6.7868152736        3.5334788782       11.1975205047
  O         0.5220247626        5.6558210874       13.1570472001
  O         5.8741808920        6.7171611010        9.0238791575
 Si         6.8970730148        6.5516592282       10.2689431790
  O         7.0326433338        5.0621407503       10.8297850803
 Si         1.2295041789        7.0789142109       12.8065440952
  O         4.6300483632        2.7286726011        7.6983674936
  O         1.3206993116        7.1958837048       11.2155659547
 Si         4.4282053215        7.2023668648        8.4796310880
  O         2.7349078515        7.0461874192       13.4073532618
 Si         0.3407472337        6.6740901988        7.5351057686
  O         1.0874369867        7.4564463667        8.7001914570
  O         7.1147908032        3.2365420163        7.7923599625
  O         3.4578203944        7.2961144173        9.7695481385
  O         5.0313515938        6.9646942905       14.8109017502
 Si         3.0597864120        2.5262090299        7.4458394698
  O        14.9018276444        3.0833548161       13.9104443211
  O         8.1108315749        2.6488891680       11.0063634107
  O        13.3308860919        0.9977570307       13.2465959376
 Si        11.3267170830        4.6314510091       13.2260780036
 Si        13.4537388108        2.4136231225       14.0469350999
 Si        10.9622985340        3.8316644170       10.2376805984
 Si         9.1007332125        1.5222171726       10.4390307174
  O        10.5658738646        2.2648750837       10.4517866548
  O        12.3396912982        4.0693711801        9.4213563816
  O        11.1057729220        4.3939133878       11.6945482380
  O         9.0203845609        1.2378173355        8.8622416350
  O        11.6734489056        6.2070780414       13.3365167497
  O         9.8664816307        4.8692987107        9.6146528453
 Si         9.8722195702        6.5028762606        9.7719253125
  O        12.4956945828        3.6374793762       13.6598682857
  O         8.3645006749        7.0364180397        9.8504299356
  O         9.9966980960        4.2077798241       14.0343320044
 Si        13.0347210792        4.5421890116        8.0266211649
  O        10.4296283903        7.0468812644        8.3808687248
  O        14.3375099590        5.4870732256        8.1840386485
  O        10.7551118914        7.1054546843       11.0032772688
  O         8.6969121510        0.1517438245       11.2508620004
 Si         9.8490080953        1.3005692033        7.4861902187
  O        13.8259444051        0.4999787278        7.7027988622
  O        13.5087274121        3.1539210987        7.3575308460
  O        11.4200173018        1.6541588568        7.6222943183
  O         6.4520468729        7.4489224953       11.5074450126
 Si         1.6024026295       14.8794020458       14.8206421870
  O         3.9951087872       14.8294580064        9.4360894455
  O         1.4841945127       14.7282831855       10.0114246776
  O         6.7898014014       11.4551304010       14.0693927764
 Si         1.9708609097        7.9075680870        9.9480713846
 Si         3.9953458244        7.8994659362       13.9677889357
 Si         6.7662275646       13.0201735429       14.4573311375
  O         6.2254184884       14.2273015718       10.6445553435
 Si         5.5615362044       14.5027131714        9.1970947023
  O         4.7140586995        8.7672248289       12.7708630911
 Si         6.2522095159        8.8578774097       12.2191688639
  O         1.9107104105        9.5321744297       10.0960144738
 Si         0.6871982233       10.6112509531       10.1469466071
  O         1.0743540316       12.1534549054       10.5223419906
  O         5.7944030333       13.3269677482        8.1124887183
  O         6.7841693614       10.0217324958       11.1780778631
  O         7.1236667229        8.9380345138       13.5741397511
 Si         0.3954763516       13.6372544313       10.4696889761
  O         0.1574181303       14.3194686454       14.4151736783
  O         7.1266944550       13.8316283876       13.0909173706
  O         0.3281516820        8.3605337590       13.2541395182
  O         4.3105182685        8.7008486372        7.8706946106
  O         2.7370016401       13.7607857191       14.6499551764
 Si         7.4433927477       10.0952970684       14.6391035174
  O        -0.0066000065       10.6801175189        8.6981522913
  O         7.3692696361       11.2419531494        7.7018513494
  O        11.1795265642       11.1743461757       13.4169446504
 Si         8.9439212782       10.9848321935        7.8847349011
 Si        13.4977682152       13.8516903512        8.0115411563
  O         9.7680521458       12.3328738653        7.6268539380
 Si         8.1964846940       10.8256370724       10.8675252713
  O        14.5693569290       10.0181020029       11.2407906154
  O        11.9275681456       13.6601689760        7.7294049374
  O        12.8444029519        8.2934068448       12.1739002920
 Si        14.0671001866        9.2826184100       12.5805630825
 Si        11.4443234109        7.5238621690       12.4166709471
  O         9.1977357673       10.3475232361       12.0075936925
  O        13.6610186583       10.5024065609       13.5765769722
  O         9.0493421090       10.2532542577       14.6530033736
  O        13.9922922927       13.5789181150        9.5176047071
  O        10.5190085612        8.5437260159       13.2578805443
 Si        12.6060827522       11.6754902578       13.9734912844
  O        12.9185201009       13.1640588753       13.4096692176
 Si        10.0106946083       10.0718921689       13.3534432245
  O         8.0292917695       12.4293807348       11.0097145318
  O        14.7454424216       14.1524334782       11.8702170902
 Si         7.5504287738       13.8915130588       11.5135746376
  O         8.9431892906       10.5088523987        9.4413787575
 Si        13.9656078000       14.3901629609       13.2403609033
