216
14.994 14.994 14.994
  O         2.8061906616        4.6105134705        3.6622134241
 Si         2.3606414651        5.5403899294        4.8709652868
 Si         3.3943146707        3.2378070783        3.1157414620
  O         2.9687870787        2.0982121275        4.1487560609
 Si         5.9993608260        4.3223834232        2.1284227461
  O         2.6651938155        2.9684183479        1.6968645708
  O         5.0037693440        3.3557687903        2.9714798119
  O         5.0723425165        5.4668222998        1.4876166993
  O         1.3292249683        4.7752827353        5.8539766309
  O         3.6844222418        6.0085322137        5.6302252601
  O         2.9724942202        0.8693402537        6.5335632222
 Si         3.0856231860        0.7101219133        4.9405740742
 Si         4.8816004845        6.5703651336        6.5247681838
  O         1.6426541827        6.8006469830        4.2090178920
  O         6.7160913866        3.3651651406        1.0316687476
  O         6.3012255842        6.7098031407        5.7839252374
  O         7.0369849547        5.2253209809        2.9738122528
 Si         2.2708036289        3.6250738026        0.2801567876
  O         0.5416124847        2.4264892300        6.7906458684
 Si         4.3543027809        5.7655161696        0.0999294574
  O         1.0104441045        4.6199187134        0.3830133025
  O         6.7929324758       -0.0037884027        1.0126142116
 Si         0.0880041697        3.9300940337        6.4166998141
  O         3.4263777949        7.0381477965        0.2274730515
 Si         0.2857795583        7.6178445723        3.9889891746
  O         4.5133178222        0.0855718165        4.6131750637
  O        14.8462695840        1.1744958464        4.3076353121
 Si         7.8507030769        6.7591590190        6.2192107162
  O         8.2051297907        1.3248031974        2.8150517045
  O        13.9872165661        3.5910114390        5.2513524968
  O         8.6521019279        6.0837868719        4.9892456230
  O        12.3504000929        2.4254093854        0.8016003067
 Si         9.5365000917        1.0800615158        6.2560847928
 Si         8.4861122601        5.1534539142        3.6816867898
 Si        13.6012266435        2.0790748134        4.7651913002
 Si        12.0608468448        3.0310756281        2.2666138193
  O        10.4658299219        2.8116511735        2.4934573515
 Si        10.3761395567        6.6859209905        1.7705903642
  O        12.7221871061        2.1828169179        3.4398055274
  O         8.5921088316        3.6007036048        4.0722792162
  O         9.9269361199        1.5569124079        4.7787285098
 Si         9.3108108141        2.2926548673        3.4956124973
 Si        13.2896402664        6.0101700023        1.9734340570
  O        12.7314862107        4.5168171189        2.3399985022
  O         9.6756834940        5.5455179941        2.6680402824
  O        11.9537035243        6.8837707678        1.9576218688
  O        14.2909465880        6.7183269686        3.0479173144
  O        12.8065072305        1.3202514964        5.9532694105
  O        13.9067775156        6.0090614119        0.4645709592
  O        10.6135668624        0.0050023166        6.7172283003
  O         8.1330736000        0.3064332928        6.2401141501
  O        10.1568829541        6.1652307237        0.2316689252
 Si        12.2066200122        0.0178157040        6.7168093304
  O         9.5268121197        2.2708069415        7.3465794883
  O         1.9486615650       14.6835764066        4.4397424865
 Si         0.4537717958       14.7540005534        3.8571774933
  O         6.5432273067       14.2065525192        3.4508094687
  O         2.5003393679        9.0593390012        1.4007066659
 Si         5.2562632755       12.7960600060        6.6544628983
  O         5.2313495649       12.5746309213        5.0686324346
  O         2.2703982083       13.3461230322        1.0157817176
 Si         0.7982037280       13.9799258719        0.8487006000
 Si         1.4232164648        9.9345627924        2.2067419268
  O         4.0704362604       13.2001087186        2.8804808349
 Si         5.1019813254       13.7452123844        3.9640966730
 Si         3.1538266176       12.3327087327        1.9111637761
  O         2.1961260816       11.2775661299        2.7198837032
  O         4.1388172953       11.5527346921        0.9295035329
  O         0.7030581260        9.0541825179        3.3529494705
  O         6.4172358496       10.2115202267        0.7913603767
  O         0.3846645266       14.6090924308        2.2625252631
 Si         0.2558475643        8.2997012493        6.9656762213
  O         4.4503180462        8.0461903462        7.0246830483
  O         5.9265752825       14.2165790173        6.9445115398
  O         1.8750397431        8.2077572235        7.0339027902
  O         0.3068004382       10.3851980822        1.1622288158
  O         6.0921920824       11.6214433126        7.3565091859
 Si         5.1265239419       10.7209191582       -0.0033970468
  O         3.0376347257       10.4640074578        7.3324182739
  O         3.8255848061       12.8819195531        7.3425602661
  O        14.6871012506        7.8828802685        5.4887151969
  O        14.6496889459       13.5005107124        4.4437452259
 Si         7.5599555762       14.8846427014        2.4357113805
  O         8.5107057228       10.8547657050        6.9489707725
  O         9.4418757012        9.6799072538        4.6031520139
  O         8.7533517231       13.8159382494        2.2710546762
  O        13.5898981792       11.3352212233        5.4118578965
 Si        13.2547649846       12.7848239801        4.7703723753
  O         9.8320056833        8.0910616605        2.3483712087
  O         8.4233423935       11.9651194630        0.3166038159
  O        14.7691419696        9.8250880603        7.2608969061
  O         8.5137074893       10.1553159475        2.1178212722
  O        14.8265412765       12.8120206028        0.3136973332
 Si         9.2879052722       13.1994303684        0.8810546719
  O         8.2152016426        8.3056264366        6.4068923757
  O        10.5372678207        9.3675990996        7.0259667403
 Si         9.7136416423        9.5676609798        3.0021878859
 Si        13.8335126893       11.1183739272        7.0029974458
 Si         7.9965844386       10.4443507444        0.6270532296
 Si        14.2490299079       11.3138288468        0.4032118953
 Si         9.1709345947        9.5744810362        6.2058045969
  O        12.3356170584       12.6495024042        3.4476489959
  O        12.9002455685       11.3178682114        1.2417523384
  O        11.0109209481       10.4804676014        2.7337136858
 Si        11.7310264186       11.8138608907        2.1936233813
  O        10.7805795113       12.7289486256        1.2471118594
  O        12.5740373934       13.6700596774        5.9310924919
 Si         4.8684109419        4.0758417899        8.3423973442
 Si         5.9263653638        5.0193997729       12.8131273917
  O         4.6970251769        4.6868567427       11.8820724992
 Si         3.5202744755        4.0254842212       11.0500654286
  O         2.1324189528        4.5989669593       11.6256021942
  O         4.3763550160        1.1019332789        8.8427406334
 Si         4.4877128170        1.2201090417       10.4551752774
 Si         1.3306614923        1.1369372101       13.6508759046
  O         3.5971999235        2.4118522197       11.0969597116
  O         6.2355180556        3.2926725641        8.8137103321
  O         6.4899544841        3.6592794928       13.4376087776
  O         3.8288150759        4.4443307317        9.5272183128
  O         6.0708693418        1.5531214860       10.7118406708
  O         5.4676683185        6.0212423058       13.9786558291
 Si         1.0284623754        5.7786237343       11.6159610089
  O         1.9441211371        1.8002330403        8.7458204717
 Si         7.0423348059        2.0265725614        9.4882656626
 Si         0.4768376945        1.5134789088        8.1150130169
  O         7.0567581793        5.7690160483       12.0091230953
  O         1.8746253751        2.5069875232       14.2252281256
 Si         3.3025305543        1.7317036179        7.8320096516
  O         1.7187645664        7.2465460371       11.5690408871
  O         0.2347325174        5.5630005800       10.2169640563
  O         3.9820540248        3.1281238657        7.3496010429
  O         7.2571189924        0.7133520824        8.5996835051
  O         2.6519132961        0.4057138924       13.1173124356
  O         0.1710594918        1.4796905854       12.5618589035
  O         5.2217711825        5.4718543031        7.6590138825
  O         3.5130258042        4.4546741386       14.6809874093
  O         0.1730824764        5.7014960015       13.0131239876
 Si         7.4513366863        3.1211003041       14.6023712615
  O         0.7030739307        0.1679484496       14.7682898529
 Si         7.5056165231        0.0206886529       14.5476434974
  O        14.8355628507        7.2491885768        8.1205147185
  O         7.7263044535        1.5781067830       14.2134517024
  O         8.8163785899        3.9695686259       14.6782639862
 Si        14.7494299526        5.0494124912       14.4482064842
 Si        14.4192573994        5.8685135784        8.8475913343
 Si        12.5190792060        2.9215021656       14.2707237961
  O        11.3180552926        3.9848796726       13.9782201729
  O        12.6564104931        1.5717349548       13.3619846232
  O         8.7486679626        6.2448310428       10.2531975747
 Si         8.5248475570        6.3589063736       11.8350179909
 Si         9.8652800450        2.7839303635        8.8470998771
  O         8.5915013919        2.4270906826        9.8312783970
  O        12.9574208348        1.0103549580       10.9040249302
 Si         9.3000743006        5.8541510132        8.8023680934
  O         9.6075764511        5.5425816310       12.7209352598
  O        14.1887337200        2.0221967608        8.9688998827
  O         9.9200411538        4.3784855734        8.8197102051
 Si        12.7312399637        1.3710295215        9.3587748817
  O        11.3454176475        2.2463958200        9.2864055837
 Si        10.0025379387        4.9265289087       14.1615133757
  O        12.8910904662        6.0096664234        9.3672775584
  O        10.5304376207        6.8612751178        8.5764484084
 Si        13.6834131574        0.8340018422       12.3285583558
  O        13.8899287378        3.7432712257       14.0665402077
  O        12.5858254311        0.1458328182        8.2922964337
  O        14.5251519523        4.6908294456        7.7328033591
 Si        11.8738778070        7.2367425312        9.3649335231
  O         8.2080207041        6.0171479127        7.6210802657
  O         3.8976409818       14.8102065332       10.9478480864
  O         0.3860078759       14.9247935913        7.7416663837
  O         5.7784816694       11.6261366119       13.8403510676
 Si         3.0524073602       14.1779515326       12.1726939875
  O         3.5269330983       11.4046794855        9.6829522473
  O         1.9387326630        8.6631488372       13.8186569750
  O         4.1283193464       13.2138041213       12.8752584607
  O         5.3866721897       10.0048052178       10.7780068127
  O         2.8148020408        9.6691883164       11.5652580380
 Si         1.6817212417        8.7207217078       12.2306316571
 Si         5.7229957571       12.9311230475       12.9127598278
 Si         3.8284950029        9.9549915862       10.3439086078
  O         6.3108835697       12.4394094133       11.4777351938
  O         3.5000885227        8.8207552770        9.2339371580
  O         1.6444362262       13.4399057054       11.8571880687
  O         6.5651863604       14.1988852429       13.5016511701
 Si         6.7043999116       10.9600178210       10.9145278514
 Si         3.0001819529       11.8311211212        8.2160218982
  O         1.6683571379       12.6414766115        8.5141444018
 Si         0.3125069015       13.4720551473        8.4623567041
  O         4.3008094960        9.4474800938       14.4548452583
  O         0.1941062334        9.2988609270       12.0256131301
 Si         3.2122908564        8.8777786218        7.6388848736
 Si         3.0493703406        8.5679117135       14.9707869663
  O         7.4905346782       11.0866570030        9.4946299941
 Si         0.0542746861       13.3200240236       11.5145264598
 Si         7.3720745402       14.6013261832        7.4742703943
  O        -0.1583557184       13.7540458590        9.9773607086
  O         8.5934605754        9.5890106322       14.3729323360
 Si        11.3464905475        9.4411250215       11.1462079406
  O        12.4867087253        8.4551963891        8.5021871822
  O         8.5090358196        7.8714775943       12.3428919484
  O        13.9745563712       10.6926234830       13.9487456286
  O         7.6659197083       10.3054014950       12.0152686129
 Si        14.1153852929       10.4497204566       12.3695967376
  O        11.5516215856        7.8367596677       10.8507558789
  O        10.9141155229       10.0748708051        9.6957866703
  O        12.4216567381       10.9435159214        7.7324878459
 Si         7.5826795575       11.6688443777        7.9852838640
  O        14.3670229238       12.4897169390        7.6360212030
  O        12.7153167257       10.0619157385       11.7050152727
  O         8.0486797150       13.2282435825        8.0300282402
 Si         8.7429718853        9.3906763697       12.7690962007
 Si        11.5310374720        9.7329661464        8.2278090118
  O        14.0495811439       14.2335168091       12.4197115746
  O        10.2323186895        9.7608187502       12.2588381841
  O        14.6229205096       11.8033485519       11.6984199630
  O         8.9891890482       14.3499450669       14.7518744954
