216
15.077 15.077 15.077
 Si         1.2266914026        3.6614475265        3.5457376507
  O         1.3205597921        4.9807717150        4.4615131670
 Si         3.3595200623        4.8233218775        1.6795900969
  O         2.1137668641        3.9206560442        2.2076728443
  O         1.8927632867        2.5161643783        4.4720650882
  O         4.0735237341        5.5693436767        2.9134162032
 Si         1.8243310106        2.0560319115        6.0095270346
 Si         1.4512395427        6.4715424215        5.0469689954
  O         5.8888885459        3.6020332635        6.2809444904
 Si         5.9885630459        0.8238575726        3.4680810868
  O         6.2169447550        2.3780555501        3.8672384374
 Si         6.7681223470        3.5029993490        4.9020020637
  O         4.4742275309        3.9138805773        0.9434452009
  O         1.8862397833        6.4349599301        6.5997735663
  O         6.5957125633        6.0497649575        6.6015247462
 Si         6.5768765170        6.3872480426        5.0081213020
  O         3.2026492409        1.4163963308        6.5100233895
  O         2.8200609313        6.0594146400        0.7629292816
  O         5.1409968781        7.0530044231        4.7314072702
  O         6.7447239585        4.9668675664        4.2322698366
  O         0.6255513024        1.0153121614        6.1242962687
 Si         4.0284200520        7.0373001017        3.5816823975
  O         4.4037306680        0.4847202375        3.4598382984
  O         2.5801905766        7.3001903049        4.2349409028
  O         6.5965003244        0.3718805000        2.0351370321
  O         6.9576793344        2.8386014182        0.5251998690
  O         5.4148801993        0.2361246743        6.9131261085
  O         1.4862931811        3.2296504461        7.0448805634
 Si         5.7198896199        4.8662560365        7.3121351606
  O         4.1513995770        5.2620393444        7.3852727715
  O         6.6719772391       -0.0819973293        4.6211656736
  O        15.0763061480        7.1355272202        4.7881339830
  O        14.7566844092        3.2207780706        3.2223915419
  O         8.3114870556        3.2160768549        5.3235923746
  O         8.0895971884        0.9455820941        6.5123419260
  O         9.5940082147        3.1451969788        1.1741392671
 Si         9.0219699995        2.2862594195        6.4267792070
  O        13.5801322177        5.4307612495        3.2275822715
 Si        13.2442049628        3.8673833635        3.3218182481
  O        12.2314253200        3.4471631888        2.1022012907
  O        13.0573721395        1.3197846135        5.8093315767
  O        12.4926988376        3.5411467011        4.7299498789
 Si        12.1653294444        2.6335052532        6.0398794682
  O        10.5985810000        2.1977132478        6.0487889424
 Si        11.1046847980        2.4670156602        1.4313863969
  O        11.1455857451        1.1645953140        2.4317903078
 Si        13.8021330619        6.9143656533        3.7956966567
 Si        14.2480088598        0.4542715966        6.4265726185
  O        12.4968110286        7.2176583172        4.7000011456
  O        12.6438627183        3.3048759447        7.4532089565
  O         7.7000056650        7.3830834243        4.4692066670
 Si         8.4723265544        3.0662010283       -0.0480369883
 Si         6.8573489894       15.0136315199        6.2241095527
 Si         3.8188421828       15.0367942340        6.7864508028
  O         3.4573513495       14.1324282175        5.4857000030
  O         6.1170553060        9.1173283962        0.7798376266
 Si         1.9886499242       10.5967664506        0.9080506287
  O         4.4027643713        8.1623066006        2.5162820267
 Si         4.8640019237        9.4880874945        1.7559997194
  O         5.4251836871       10.6083586121        2.7505019877
  O         4.5534415946       12.9480873851        3.4506081410
 Si         5.8714913756       12.0894820304        3.1658790700
 Si         3.6386301690       14.1947705266        3.8739113887
  O         1.7312552150       11.9480075424        1.7453302491
  O         2.2523267460       14.1353748994        3.0633119411
 Si         1.0797564243       13.2923782743        2.3386354428
  O         0.8552571651        9.5722716365        1.4886650982
  O         3.5041922491       10.0518486028        1.0937605664
  O         6.7575971875       12.8155325023        2.0200795056
 Si         6.8584364020       14.1435490886        1.0897877417
  O         6.7629306938       11.9389455538        4.4899729548
  O         0.3910870232       14.0576634871        1.0949127990
  O         7.2329977810       13.5714419209        6.7610789792
  O        -0.0712886510       13.0352361988        3.4376893911
  O         5.7537628495       13.9710939430       -0.0768779376
  O        14.0675290607        7.7769051393        2.4389857205
 Si         8.6156341389        8.4341558751        3.6633363017
 Si        14.3841245802        9.2860791404        1.9354157744
  O         9.5791504073       11.3874973802        1.8122988366
 Si        11.3022247811        8.1661583936        5.2071606884
 Si        12.7164451355       10.6915840122        4.1870860977
  O        10.1399259906        8.0898788805        4.0773542426
  O        13.2710121555       11.9402621142        5.0219473190
  O        12.0002382735        9.6440897310        5.1872632937
 Si        10.3288370702       12.2214981190        2.9434876895
  O        13.5131073874        9.6523131442        0.6372780589
  O         8.3189616484       14.2935714079        0.3929723901
  O        12.7314267750       14.3555030600        3.7784963952
 Si        13.8156382682       13.3535286006        4.4715252264
 Si        11.8960487137       14.7943267957        2.4629747256
  O         9.3646349851       12.3259920412        4.2333870035
 Si         9.8219327983       11.0687406746        0.2608650249
  O        14.2876296556       14.0621987867        5.8131560674
  O        11.6191314175       11.3170914631        3.2103958537
  O         8.3289136185        8.4077866113        2.0483543572
  O        13.8994783520       10.1376767425        3.2309524208
 Si         7.7253759792        8.9026582377        0.6011241783
  O         8.3239500081        9.8995159651        4.2408043860
  O         8.4015127206       11.3208530421        6.4791152495
  O        10.6850889504        7.7017720351        6.6603251270
  O        10.7502707834       13.6634089436        2.3552496303
  O         8.4775159848       10.2136041185       -0.0056555234
 Si        14.1956070554       14.6131263341        0.2671139807
  O        12.9524905630       14.8366542082        1.2521361825
 Si         8.2174202867       11.3659220123        4.8680552986
 Si         3.2272277163        2.7504888926       10.7933153285
 Si         1.2818248796        4.2148194856       12.6228690379
  O         2.2123033106        4.7781697542       13.8170649650
  O         2.3581627091        3.9289850513       11.4656899183
  O         3.4568493975        1.6475873706       11.9535891254
  O         4.7019556078        3.1451660007       10.2869557296
  O         2.2790932427        2.4234120447        9.4984088891
 Si         3.5793632415        1.1964183522       13.5167832212
 Si         6.2539945530        3.5080184423       10.0535240585
  O         5.7217496179        4.1599717527       13.7337908566
  O         6.2817841058        4.5482383407        8.7972913685
  O         2.2097417096        1.5729281028       14.2963257697
 Si         1.3282109083        3.4427176329        8.6344036651
 Si         0.7247209139        1.4550314826       13.6740874981
  O         1.8842080511        4.9534402855        8.7971724716
  O         0.4031851924        2.9151046156       13.0359472241
  O         6.9258568110        4.0715857174       11.4114740167
 Si         2.6276942765        6.2821524402       14.2539520551
  O         0.3082019369        5.4207892529       12.1667142578
 Si         0.6765407071        7.0054257808       12.2150458215
  O         4.0022754807        6.9152132953       13.6627873432
  O         4.7851219119        1.8651945125       14.3613939884
  O         0.8657656328        0.3110957138       12.5645188473
 Si         7.0369676760        4.6233990928       12.9317378462
 Si         2.7680175380        5.9572687563        7.8741842201
  O         3.1395843450        7.2194894191        8.8096634566
  O         7.1460446442        2.2050656053        9.6630791395
  O         6.9870796657        6.1867683231       12.7840044753
  O         1.4223361818        7.2239524021       13.6619104393
 Si         5.4706625475        3.1862543609       14.9852830411
  O        14.6726301181        0.9489589573       14.6960895477
  O         8.9574229694        2.9010801977        7.9198473083
  O        14.8452569887        3.2161832153        9.0267732823
  O         9.0196068874        1.8861172734       14.0660637656
  O         8.3072107242        4.2483480104       13.8995321406
 Si         8.7120470782        2.0638315790        9.2807070090
 Si        13.2478159425        3.4992281592        8.9626125577
  O        12.3291127355        2.5904301050        9.9807792033
  O        11.1599299963        2.1145225783       12.4085909056
  O        11.1511942795        4.5689696644       11.1478571972
 Si        11.1081818619        2.9525923824       11.0136331433
 Si        11.8598230607        5.7386663301       10.2697617996
  O        12.1824649838        6.8792056676       11.3682068337
  O        13.1046651814        5.0265944643        9.5041976900
  O        11.0131036095        6.3753046354        9.0355645799
 Si        10.5470325274        1.4508068601       13.7572672040
  O         9.6422183541        2.6583844759       10.4347279964
  O         9.1845736868        0.5447796264        9.0305514142
  O        13.9814991368        0.3784721009        8.0119408585
  O        11.4689431036        1.9628865916       14.9990578399
  O         1.6476017072        7.3723547038       10.9960981815
 Si         7.4226272221        7.6920032566       12.9622292816
  O         4.1680159069        7.8491755835       11.2163277460
  O         3.7689735362       14.6800255011       13.5064666456
  O         6.0590890587        8.5470202295       12.8745718151
  O         3.1386018722       14.3661338559        8.1011392221
 Si         2.9085685867        7.9737956945       10.2093027822
  O         1.9491638323       10.9265188234       14.3785421622
 Si         4.5003602047        8.1796256869       12.7629269334
  O         5.8637219707       13.6683391015       12.3427758239
  O         4.2553145109       12.1133494837       13.8230564440
 Si         4.9272302270       13.5806013241       13.6701801485
 Si         3.2981760094       10.9603412504       10.2736797042
  O         3.7644970208        9.5056941610       13.2697138703
  O         2.8257742146       11.3834603563       11.7757271598
  O         4.9127085462       10.8419696809       10.2006250659
 Si         3.1851904502       11.0020019469       13.3121873586
  O         2.6688617293        9.5312510297        9.8938683177
 Si         6.4990931270       10.9386801746        9.9677092669
 Si         2.1456130350       13.5077478093        9.0612556505
  O         2.7521170241       12.0205945981        9.1916369910
  O         1.9794689773       14.0500204132       10.5953695464
 Si         0.6403570268       14.2483807196       11.4877463899
  O         0.6167474606       13.5086680409        8.4880367570
  O         6.8239637672       11.7042597385        8.5793786669
  O         7.1510214014       11.7026612489       11.2347256100
 Si         7.3099558351       13.2000875499       11.8052641054
  O         7.2125627876        9.5004665376        9.9001092793
  O         9.8187093733        9.7431941394       10.6174034078
 Si        13.7058368928       12.5799850519       12.9364725158
  O        14.4706106924        7.9282334385       12.0237226585
 Si         8.5838261934        8.7591352273       10.2880106061
  O        11.4036334163        9.0212683142        8.7206206687
  O        12.5666018626       12.8819336788       11.8209184294
 Si        12.8898601579        8.1844633299       11.9962657709
  O        10.0447212779       12.4788662296       14.6045955057
 Si        12.6438302688        9.9359115039       14.3980233511
  O         8.3171627872       13.3476344664       13.0269614258
  O        12.4811930637        9.4330776801       11.0670295140
  O        13.4169026014       11.0836495131       13.5147639278
  O        10.3674277813       14.9130170533       13.7479316778
  O        11.4755664207       11.4717127796        9.8172256111
 Si         9.2601581836       13.8207200340       14.2268037713
  O        10.6689627451       13.8966941157       10.3584715521
 Si        14.3274336646       14.2459294324        9.0097985318
  O         7.9403621782       14.0648384487       10.6012831407
  O         9.1025712250       13.0161118668        8.4753267874
  O         9.0346086975        7.9338133650        8.9506363909
  O        14.6084911311       14.8405565779       10.4747983363
  O        15.1406904535       12.8784303238       12.1785248180
  O        13.6744301503       13.5894170234       14.2050527345
 Si        11.9576822622       12.9089728728       10.3225540752
 Si         9.2406433337       14.1348406922        9.6336266196
 Si        10.5214555260        7.7311084231        8.2870657943
  O         8.0054908549        7.8526386064       14.4656229748
  O        13.0451675464       13.2955490858        9.1893154132
  O         8.3922066081        8.0050858999       11.7076019185
  O        11.1578232802       10.2828715205       14.9208860357
  O        12.4839958206        8.5872847064       13.5048829950
 Si        11.3197850829        9.9177290935       10.0595626359
 Si         7.9001665427       12.3858134195        7.5941396688
