216
14.824 14.824 14.824
 Si         2.6805682140        2.5574336645        2.3447734248
  O         1.2637463945        2.8742225927        1.6398755197
 Si         5.0438947135        4.5112644028        2.6024302894
  O         3.5562195111        3.8830099040        2.5642660389
 Si         5.0952769548        6.6868647439        4.9764872563
  O         5.1832034190        5.5956937268        3.7898027233
 Si         2.8645962050        1.8716287489        5.3624752204
  O         6.1764799333        3.3815330796        2.7302661338
  O         5.3535381893        6.0826544078        6.4260991657
  O         2.6314931029        1.8166032577        3.7766517072
  O         6.5113923302        1.3238771650        1.1518066940
  O         1.6594776261        2.6980673292        5.9926612083
  O         6.2532558113        1.3157786525        6.2616802358
  O         3.3771662040        1.5627060838        1.3171167346
  O         4.1862785266        2.6423859811        5.8472359693
  O         5.2737409583        5.1821908880        1.1603752733
 Si         0.7994379030        3.6601109480        6.9282059340
  O         3.2033558796        6.7573958291        0.8953368202
 Si         5.3503290568        2.4336286218        6.9473402535
  O         2.8844497141        0.3241883381        5.8439162620
 Si         7.1750803345        2.1731787644        2.3751807037
 Si         4.6087721843        6.2846794308        0.2194099478
 Si         3.4169512813        0.1616071117        0.5472765588
  O         6.1792213565        3.7921852372        7.1587314263
  O         5.5274416982        7.5780371380        0.2515484603
  O         1.4768876429        5.0990764248        7.1644410549
  O         7.4049552445        1.3997807882        3.7862979639
 Si         7.4471617002        0.8576222995        5.3054538999
  O        13.8543967460        6.5303712372        0.4096407252
 Si        14.5365609738        2.8875552184        2.0488354054
  O        14.1972372150        3.6951614372        6.1619935484
 Si        10.4767290982        4.2278779803        6.6911818915
  O        14.6592098067        3.1422204233        3.6299617028
  O        11.9382582196        4.9414658319        6.7541977333
  O        13.7557246320        4.0396346366        1.2308573934
  O         8.7348808957        1.3164734742        6.1772918018
  O        11.6992744501        5.9282538137        4.4289426799
  O         8.6331527967        2.6394012432        1.9008429895
  O        10.6233400333        4.2857136367        2.5595000131
  O        13.7528076653        1.4903245400        1.8134789549
 Si        10.1119998573        3.1246607041        1.5446244633
 Si        12.3363371931        0.8408260867        1.3748874743
  O        11.1228665028        1.8736325989        1.6510270039
 Si        11.1543097827        4.4325586140        4.0597069280
 Si        13.7044864828        2.8365268300        4.8816177866
  O        13.6773466300        1.2579021323        5.1996980985
  O        10.0017752043        4.1041244192        5.1395431197
  O        12.2642157494        3.2987901489        4.3646675527
 Si        12.3493770590        6.2774704471        5.8905672350
  O        13.9222259243        6.5741216908        5.5980625502
  O        10.0472201804        3.7921614970        0.0842503945
  O         9.3904586769        5.1786119331        7.3364037528
  O        10.4625443088        2.7894470782        7.4143814308
  O         3.6303745793        7.3310167198        5.1010044192
  O         1.0755293650        7.6673262887        6.8442899488
  O         6.1898453703        7.8405204499        4.7672748339
 Si         0.1637927736        7.8047513411        5.5100066914
  O         0.8747622574        8.0652775679        1.2936787299
  O         1.3082504120        8.0719720755        4.3648872176
  O         5.4627512223        9.8900335370        1.2447639201
 Si         2.8441447569        8.6142530468        4.5488104789
 Si         2.0487834314       11.0283526180        6.3596470536
  O         2.6429774590       12.5256470382        6.1886331802
  O         3.6176487767        9.0316059112        3.1877632260
  O         3.8682047836       13.8375625055        1.5700035317
  O         2.4767029282       13.4316615790        3.7887527430
 Si         3.9739811451        9.9846058030        1.9122877839
  O         5.0852343827       13.3279185819        3.8646036915
 Si         3.7912526347       13.0059561995        2.9337325934
 Si         2.1283436630       13.8029079626        5.3334010595
  O         3.7125983015       11.4635810870        2.4695560121
  O         2.8852222617        9.8721316544        5.5922718926
  O         2.9721167297        9.4668642671        0.7463757899
  O         0.6372367731       11.1229617121        5.5939595582
 Si         6.5764739662       12.9402704388        4.3505812784
 Si         6.4867422603        8.6413187407        0.9270151691
  O         6.9202808526        9.5601817959        6.5933838403
  O         0.5454982497       14.0905551458        5.5308662026
 Si         2.2726836515        8.0277484439        0.5018756117
  O         6.5106754476       11.6974028383        5.3661757666
 Si         6.9479233492       11.1838535513        6.8363317820
  O         7.1483904336        8.4747023750        2.3850529943
  O         7.3298168348       14.0874772243        5.1865217082
 Si         7.4725206533        8.4888722316        5.4882287225
  O         8.3109791394        7.3132894569        6.1876214057
  O        13.9978179422        9.0630661969        5.3456965240
 Si        14.0816408741       14.8526400508        6.1623774344
 Si         9.3649464082        7.9619656450        0.2590720804
  O         9.6385824787        8.2179330500        1.8564784863
 Si        11.9501957847       12.6267942603        5.6909590081
  O         8.8814069510       10.5850954572        2.3105673450
  O        13.7540357190       11.1262609105        0.3580679805
  O         9.8654965995       13.0028744427        2.0637023714
  O        11.2710048191       13.0222920599        4.2813389026
 Si        11.3596663236       12.9461356454        2.6691231003
  O        10.8776274892       12.2543813104        6.8329740090
  O         7.8961820845       12.1861132603        0.5063341226
  O        11.6987067412        7.4865550512        6.7422555679
  O        12.0260848753       11.5274110260        2.2213789292
 Si         8.5962589612        9.0752453528        2.7783289877
 Si         8.5199226197       12.1098598656        1.9825299895
  O        14.2545425786       10.7814224515        3.2086597339
  O         8.4810252940       11.4526127665        7.2445872371
  O        13.2502166444        8.9759822330        1.6455881269
  O        12.8594124723       11.3526445792        5.3615951516
  O        12.1751322574       14.2457820737        2.1392674331
  O        12.8483802694       13.8335592719        6.2533544056
  O         7.4192501136       12.6015873253        3.0376475173
 Si        13.3212699071       10.6121300174        1.8669296456
 Si        14.1525315399       10.5865148886        4.8317101305
  O         8.5461202758        9.0598774503        4.3908409332
 Si        14.2084019872        8.0777736691        0.6573832565
 Si         0.9782111312        4.2281593826       12.4348486077
 Si         4.6506529784        1.0192997452        9.6570451027
  O         5.6717400225        1.3325162569       10.8737214125
  O         3.2023525196        1.3889637381       10.2972133647
  O         6.4301967092        1.9905300174       13.3195500191
  O         4.6989090578        3.5432009816       12.1000613262
 Si         3.8788617779        4.8994881978       12.3893681625
  O         2.4469130200        4.5276525109       13.0192928967
  O         4.6076523843        5.7705456857       13.5226235655
 Si         4.1141667578        6.4289696936        9.6521587974
  O         3.6242407421        5.7607332871       11.0404193689
 Si         5.9731075808        2.5768284334       11.8706611811
  O         4.9380011991        5.2760048030        8.9024205410
  O         1.1534224608        2.8186396306       11.6206711790
 Si         1.7644549179        1.4161944072       11.0416965673
  O         0.7355330758        0.8245556504        9.9521067083
  O         4.7785744895        1.9884383307        8.3783968221
  O         2.9003282503        6.8334223801        8.6531496021
  O         0.4048982683        6.5784453086        9.0768563578
 Si         1.5006444470        6.5365575384        7.9143773604
  O         0.5774120601        5.3501098182       11.3641691054
 Si         0.3204030450        6.7652255698       10.6673744415
 Si         6.1684900248        0.8493567873       14.4510484960
  O         7.0709724797        3.4600972435       11.0421412143
  O         0.6610412302        2.8901958641        8.3265081456
  O         1.8162005502        0.4126246659       12.2744296309
  O         7.2388245715        6.0865188596        8.2390657518
  O         4.6157221778        0.3971687858       14.3180336278
 Si         5.9540893652        5.2945237757        7.6688983742
  O        14.7305844304        4.3701244646       13.6653299004
 Si        14.6772522920        1.6021792704        8.8585389198
  O         8.1424541459        2.6367548776        8.5768491174
  O        13.4227005559        2.2226596913        9.6350114381
  O        13.1038802966        1.4036041950       12.1916631174
 Si        12.4273854913        2.0418329142       10.8687850861
  O        11.7761922183        3.4616331054       11.2121572357
  O        11.3550526987        0.9787125468       10.3684383823
  O        10.1342972905        5.0225006876       12.5815719714
 Si        10.6989999175        4.6563624924       11.1186362991
 Si         8.3443218251        3.0513666793       10.1479207524
  O         9.4581586190        4.2043277992       10.2053854954
  O        11.3802205410        5.9118358047       10.3819055238
  O         8.9079521025        1.7184100335       10.8588464626
 Si        10.5493100138        5.1175840457       14.1310884426
  O         9.5540909567        0.5009608805        8.5742616923
 Si         9.8268276091        0.5843729636       10.1761873005
  O        12.1683123854        5.0289020266       14.1646282264
  O        13.6631679033        7.2462496769       10.9458363580
 Si        12.0983699104        7.3249615921       10.6479090157
 Si         9.1974921665        1.7902295171        7.6462003448
  O         9.8014723359        6.4273156940       14.7465359288
 Si        13.6673825300        4.9962486476       14.7475206725
  O        14.3362908634        0.5844580305        7.6584369688
  O        12.3600578416        0.5987118133       14.6165304648
 Si        12.9372006275        0.1480705055       13.1989325884
 Si         8.6151403093        6.5413261540        7.5609155512
  O         1.9850746404       14.5703711219       14.7236331045
  O         1.3342913153        7.9056331546       11.2093868301
  O         5.0036500696        7.7606937284        9.9620174494
  O         5.9986315812       11.9339764808        7.9575605810
  O         5.0900182078       14.3934812417        9.0598202778
  O         1.9655947037        7.7987734868       13.7614230471
 Si         1.2073494938       14.2171580541       13.3399869261
  O         3.5433658849        9.9529043401        9.9706307198
  O         1.9054906024       10.1278598777       12.5985774081
 Si         2.2142460501        8.5709869027       12.3903189414
  O         1.4207572255       11.5155624265       10.4593324485
 Si         2.6036748603       11.1302447787        9.3878569082
  O         5.8486959584       12.4324799247       10.5438653507
 Si         1.1065210361       11.4024895207       12.0635171493
  O         1.5738364486       12.7278516760       12.8434735401
 Si         5.1743274344       12.7731379645        9.1191565771
 Si         6.6636366160       11.3773230183       11.4426814531
  O         5.8422655183        9.9680229760       11.3660481879
 Si         4.5988000945        9.0759506317       10.8360937284
  O         3.6173813259       12.3534094966        9.1374717528
  O         3.7928701563        8.4858573771       12.1000070211
  O         1.9690447419       10.7135574775        7.9523141844
  O         6.9237597861       12.0216739010       12.9158658699
  O         7.0813877072       14.3938118216       14.1467743945
  O        10.5482195240        9.6711113622        7.3366432696
  O        10.0446259502        9.5618637160       11.4485793991
  O        11.8534268270        8.2404446886        9.3154302572
 Si        10.9433119994        8.2345705982        7.9634624174
 Si        10.3385617674       13.3849266989       12.2590064661
  O        11.7814390248       13.9987213298       12.6064681699
 Si        13.6161279632       10.3644974293       13.7248558332
  O        14.4116013253       14.3303525222       13.4237120729
  O        14.1759300009        8.8734580682       14.0590076174
  O         8.0980792096       11.1239014038       10.7826686707
  O        11.6092107228        7.8186352676       12.1059560543
  O        12.1126427921       10.2181316013       13.1740912785
  O         9.5554665004       14.0920139121       11.0280325108
  O        10.5588832471       11.9243062263       11.6942710490
  O         9.5625910000        7.5075694305        8.4162241372
 Si        10.0122105457       11.1655767223        7.6490814634
  O        10.2097943516        8.8906518382       14.0850778612
  O        10.1473704512       11.2771589737        9.2469694739
  O        14.4030296102       11.1164722875       12.5234212247
 Si         7.7796491147       12.9696579581       13.9346277026
 Si         9.6917200534       10.9709184968       10.7519174196
 Si        10.9842449656        9.1607804722       12.7114198551
  O         9.3080317303       13.2741364714       13.4891677868
  O         7.8276640289        8.4891705802       14.8189289470
