216
15.206 15.206 15.206
 Si         2.7758521467        1.8824295621        5.8683831251
  O         3.3230610919        1.8980380440        4.3543833552
 Si         3.2345051454        5.9401941071        2.6999625532
  O         2.3041197106        1.3529818406        2.0215951553
  O         1.2474600985        1.3570388171        5.7811609016
 Si         3.3042447150        0.8158575262        3.1654835184
  O         1.6779721894        5.9469705455        3.0873736147
  O         3.8948184682        5.0662012105        3.8918289905
  O         3.4850035713        5.2234191956        1.2611376019
  O         5.8484519152        6.4890614072        4.7413544681
 Si         5.3679741764        0.8653856419        1.0361207788
 Si         5.1874175235        5.0472002508        4.8416203269
  O         4.9865852060        4.8234784639        6.4204981339
  O         3.8826258578        1.0142181214        6.6621006740
  O         6.2413960909        3.9511094353        4.2802238290
  O         2.6920625358        3.3197845291        6.5718684842
  O         4.7888144128        0.7180450205        2.5408249317
  O         1.3451198807        5.5368369853        6.3221811911
 Si         5.2372030316        0.2736156396        7.1636308345
  O         6.2431325852        2.2241040486        0.8692318744
 Si         2.5349015389        1.5826980019        0.4423746907
  O         6.4790665964        0.3104215107        6.1074279136
 Si         0.1145754718        6.2356787070        3.2712314891
 Si         2.0606691766        4.5557017338        7.3590916854
  O         4.0354773106        1.0270954234        0.0882224177
  O         3.8748284335        7.4333029291        2.6235976493
  O         2.3738678871        3.1344093948        0.0887989639
  O        14.6651685960        6.3301450206        4.7460535292
 Si         7.7787029048        2.7073480493        0.6401879598
 Si        15.1837415057        6.3811668553        6.2562168289
 Si         7.7819665368        4.4058639571        4.2070644823
  O         7.9194464051        5.5612223602        3.0644211669
 Si         8.0726302557        0.5783764512        5.9028198398
 Si        14.8621620274        1.4454995031        5.4629656392
  O        14.5841070460        4.8446945004        2.7722071667
  O         8.3864433504        1.9864507287        6.6579543954
  O         8.2326916122        4.2691809829        0.8806800379
  O         8.5521647674        1.7553348717        1.7271292248
  O         8.1526552060        5.0679706028        5.6240305442
  O        10.6942767381        1.5090209572        3.0889995394
 Si         9.1126332478        1.7599610830        3.2520316304
  O        14.4191601071        2.7727145408        4.5887353542
 Si        13.6093940045        3.7676228419        3.5278037657
  O        12.3423715856        4.6896889501        4.0430940517
 Si        11.2119602252        5.7754215851        3.5818104635
  O        10.3404904211        5.1355398894        2.3577822001
  O        12.9924899742        2.6896492193        2.5215534848
 Si        11.9847234865        1.5149123992        2.1098777610
  O        10.3033838073        6.2502656885        4.8310013862
 Si         8.8713343641        5.5039584741        1.7496218386
  O         8.7900958320        3.2152654628        3.8731893552
 Si         9.0196679876        6.4208081526        5.7962975795
  O        11.6410301654        1.8294189739        0.5520251777
  O         9.0267220553        6.9674642370        1.0350632787
  O        14.0222481477        1.5793125114        6.8080779723
  O         8.4693697263        0.7119178593        4.3268292148
  O        13.1401274238        6.6365518766        0.9533369416
  O        11.7265254569        7.2032103438        3.0024264991
  O         9.5681620462        6.3382907659        7.3443042933
  O        14.0968903014        5.6316930737        7.2014995864
  O        12.6820827069        0.0728207965        2.2910334071
 Si         6.4758783457       13.1952018354        0.3302353773
  O         0.3838234226        7.9315955919        6.4796211202
  O         6.2595857815       14.7345721692        0.7897612063
 Si         4.5591034996        8.5460565099        7.0721095119
  O         5.3947399938        8.0944944843        0.6222722948
 Si         6.4940479438        7.9368556318        4.7806934695
  O         5.6219303648        8.7990294069        5.8623142354
  O         6.1934530421        8.5466436736        3.2687270444
  O         2.7731009147       14.5788597269        3.6481828645
 Si         4.9880522806        8.5115620508        2.1406658152
 Si         4.0121208041       11.4463326534        1.3636529517
  O         1.2702197565       10.5242145884        6.3416532415
  O         3.2444465035       12.2852883098        2.4690026445
 Si         2.3541968392       13.0250746789        3.5578790668
 Si         1.7872060032       12.0732740767        6.3492137669
  O         2.6109651765       12.3472932368        4.9926875399
  O         4.3575616585        9.9915051861        1.9782881097
  O         0.8011225057       12.8399053537        3.1721115756
  O         5.3144983424       12.2757690513        0.9421346538
 Si         1.4986155495        9.0141750996        6.9221150977
  O         3.0052725753        8.4820069079        6.5658699420
  O         0.6371583915       13.2120291489        6.4767717429
  O         3.0849373453       11.4015894966        0.0486461786
  O        -0.0037274540        7.7669313508        2.6963041758
  O         0.2331365637        9.8818913768        1.0354271576
  O         2.7720793756       12.2703939827        7.5953277904
  O         4.8301454550       13.9406055980        7.4503222051
  O         8.0535161134        7.6847925469        5.3147287858
  O        14.0060397359       12.5202351374        4.8343694541
  O        14.5032983100       15.1172268423        4.9974497123
 Si        12.3089046912        7.8359178306        1.6496895004
 Si        14.4279151583       13.7042095725        5.8372121560
  O        14.7280095109       14.4125484511        0.8736844759
  O        13.3821524375       13.7864449776        7.0454930861
  O        13.5439799612       12.6646982979        2.3058836215
  O         7.8296162803       12.3636149482        0.7251490916
  O         8.5603273903        9.7159220234        0.3811344484
  O        13.1499699641        9.1187760907        2.0634700747
  O        11.3999562326        8.4657384777        0.4702156353
  O        12.1219116696       13.6958180136        0.3877019339
  O        14.8190044816       10.4916245637        3.4114091790
 Si        14.7104294303        9.2784027740        2.3529720184
 Si        14.5912404025       12.0982048907        3.3966196130
 Si        13.2708408377       14.0162787458        1.4686673820
  O         9.0205218547       14.6609195692        6.6288443482
 Si         5.8156445661        4.2250957801       10.4879233266
  O         4.8925851452        4.8418789387       11.6315676212
 Si         4.1863047808        5.7818784432       12.7076857003
 Si         5.7394771850        1.0731365396       10.1739075677
  O         3.3271456362        6.8929364995       11.8830156554
  O         5.5419830431        4.8361279652        9.0202711356
  O         5.6338341379        2.6306525084       10.5287719161
  O         3.3297564901        4.8481188170       13.7015963789
  O         1.4128102684        6.0192161792       10.3009604630
  O         1.0099225256        4.1235595250        8.4858686604
 Si         0.3503514426        6.3863807561       14.1527975032
  O         1.8329567889        1.0890063383       10.6981860685
  O         0.9307746469        6.7160875001       12.7224731034
  O         5.7051787091        0.9412550801        8.5604707805
 Si         0.5405254032        4.7252367865        9.9186502475
 Si         1.7840299219        7.1066555196       11.4379796417
  O         5.2162366331        6.5018194836       13.6978904214
 Si         0.4447832261        1.9112946082       10.6751328152
  O         0.7164820449        3.4895451748       10.9461479088
  O         4.4300153016        0.3920214041       10.8544671509
 Si         4.7307394979        5.5554073501        7.8404679960
  O         7.3320282718        4.5993427650       10.8463729733
  O         1.3512331814        5.6214174087       15.1333661309
  O         3.1731867265        5.3788087763        8.1562313843
  O         1.3579155481        0.8006574783       14.8933965963
  O         4.9996960207        7.1404294096        7.7567531395
  O         7.1027814927        0.4027417178       10.7644912172
 Si         2.6707296950        4.6990650380       15.1647849308
  O        12.3578955124        4.3524219027       15.2928725161
  O        15.0586022982        1.7381574632        9.1986087459
 Si        12.9001559064        5.7697230281       14.8181692946
 Si        11.7909874369        3.0054672074       14.6511867840
  O        11.8453523311        5.5423205582        8.4608621482
  O        10.1343701893        1.0760210459        8.3124168785
  O         8.0143378203        2.4567601810       14.2541765566
  O        14.5131693742        1.4271088231       11.7172452856
  O        14.2540248537        5.4717610398       14.0178037675
 Si        13.7015229363        1.7424323794        8.3501176399
  O        14.1885194800        5.1474567351        9.7456521338
  O         9.1883321014        3.1568533475       11.8045479924
 Si         8.7014416363        3.8842356237       10.4431841731
  O         9.6640368451        4.9925687086        9.7504162267
 Si        13.3517393188        1.1999064577       12.8004394395
  O        12.6686031767        2.5415236511       13.3742045724
  O         8.4636531371        2.7766956009        9.2728895194
 Si         9.3228995049        2.5670841857       13.3008180019
  O         9.9762389588        1.0967381968       13.3128813263
  O        10.3636726416        3.4884058650       14.0982055703
  O        11.9555371941        6.6720868694       13.8568588885
 Si        13.3041661220        4.8680659958        8.4136092276
 Si        10.2882212479        5.1826943253        8.2570222866
  O        13.0627981077        3.2458261780        8.4000292936
 Si         9.2898030274        2.4062038002        7.9250001401
  O        12.9157129824        0.4038583536        8.8683573582
  O        12.1906519783        0.2357361144       12.1976733368
  O        14.0170353199        0.5592335189       14.1001532523
  O        10.1404937840        3.7240086702        7.5324249304
 Si         0.0910470923       15.0442092280       14.7221087084
  O         7.4444226280        7.5228224849       14.4172570834
 Si         2.9096121779       15.0765538848       10.6751524901
 Si         5.8963897884        7.8025346787       14.3143430488
  O         4.5959538485        9.7402544741        8.1535455089
  O         1.7388337764        9.4990246871       14.1579201976
  O         1.4197792231        8.6237415278       11.0123198968
  O         1.2672298901        9.0270735489        8.5028759396
  O         2.9352842734       14.2496441976        9.2765053727
  O         1.6657560598       11.8027401137       12.9846036314
 Si         1.2061058149       13.2297887246       12.4358508347
  O         5.7792839720        8.9784244529       13.2251579113
 Si         5.1951993055       10.1010957996       12.2537292785
  O         2.4537415580       14.0864787369       11.8711621880
  O         3.7950588313       10.4570304834       12.9021267975
 Si         4.2616318652       10.5419246106        9.5109981458
 Si         2.5903862718       10.8250650423       13.8439241948
  O         4.9993729632        9.7343034510       10.6968636116
  O         6.1056536020       11.4008776875       12.1972212610
 Si         1.3171574681        9.8028529016        9.8917857791
  O         2.6965951963       10.6169443084        9.9085006281
  O         4.6615402393       12.1132670254        9.3389014416
 Si         3.8081419947       13.1677000690        8.4305597420
  O         6.4978350411       13.2987199551       13.9204672034
  O         0.5538723577       13.9273507360       13.7010447087
 Si         7.2064692646       12.3748316483       12.7933537963
 Si         0.2494994932        9.3462589680       14.7222826683
  O        -0.0900700733        7.7858483592       14.8036453391
  O         0.0539137822       13.0560742447       11.3166077372
  O         0.0767099978       10.8448971764        9.9760617971
  O        10.2746292770       11.7919352839       15.2790630050
 Si         8.7375425969        8.1352042265       15.1042068223
 Si         8.7485286344       11.2881818300       15.1154716828
  O        13.3088528912       11.1616675018       11.5654758323
  O        14.4202015004       10.1348200422       13.7794370185
  O         7.7714438885       13.2277045712       11.5611826634
 Si        12.7136513903       14.0273844665        8.4870426757
 Si        14.2807626771       12.0033423279       10.5584620814
  O         9.7668838560        8.1555708983       13.8533145487
  O        11.0957148809       13.8519379805        8.3178436910
  O        12.0566890014        9.2771251934       13.1428181209
 Si        11.3498692800        8.1589787949       14.0708192132
  O        10.6154026387       13.7145083978       13.4613103235
  O        12.4300910227       11.8050611214       13.8605272709
 Si        10.6521027246       15.0597364653       12.5589181709
  O         8.5740225868       14.1859540102        9.1169376556
 Si        13.0465570676       10.5728014213       13.0569528433
  O         9.7380279764       14.8871099670       11.2451336159
 Si         9.7382327711       14.7085610049        8.0991732966
 Si        11.3476084234       12.7566841313       14.5518168405
 Si         8.2727408883       14.4788236468       10.6824087719
  O         8.3236597278       11.4753822143       13.5512860216
  O        13.3856321744       12.9104317855        9.5106731658
