216
14.966 14.966 14.966
Si      9.302303736199987     13.954932204199993      3.910281779400008
O       8.280686835299985     10.019488585999998      2.701685581199999
Si      7.615306045999987     11.495128927699998      2.808335045999987
O       7.269666720300000     11.946490926700010      1.298537994100014
Si      8.403175332099980      8.714520714799990      1.741706719100021
Si     10.515871007299987     13.836481733299992      6.899540705799994
O       8.605604460899995     12.564785456299989      3.488369054000008
O       9.992107205899995     13.747709337399989      5.367870818000012
Si     11.508097526299986     14.510143404299997      1.621522008700013
O       9.784501837699986      8.739045319700002      0.903270748799991
O      10.404387322099979     14.298474211500002      2.783975666699994
O      12.328899655799988      8.980877344000001      0.914690700500013
O      11.494755393000002     13.264725353499990      0.589782720099998
O      12.950831635399982     14.769733108599990      2.322955542500009
O      13.112563024099980     14.445389930700003      4.939139630799992
Si      7.483000000000000      7.483000000000000      7.483000000000000
O       7.260611910899987      8.677921452799984      0.609145365000017
O      10.938760301399999     12.414796164499995      7.560509665699994
O       8.212919779099984      7.424700467699992      2.691160150700012
O      11.733628245999983     14.910674924499993      6.999416942500003
Si     13.933413659799992     14.415757304799994      3.554753909900005
Si     13.846625413499984      9.463649622699995      0.862365027800011
O       6.274489988899990     11.475658546100007      3.708258042800007
O      14.049842991900006     10.394585516799985      2.159521710300017
O      14.443708211499988     12.968479943700000      3.089037998199996
O       6.284952841800003      8.366918101800000      6.846761560999999
O       6.104049450099991     11.479714910699990      6.349203690300020
O      14.759117346299996      8.133434212199990      0.833345613700003
Si      0.852320714799999     13.808808909099987      7.354074843300004
O      14.426447003100003      8.507687134899989      5.122153428900005
O      14.684510566100004     10.166954789999991      7.072023229400007
O      14.914601941699999     11.015560447500006      4.501510988600011
O       4.847877537100002     13.352408645599995      4.892648350500002
O       1.358369876799995     11.485458233499998      2.080202694900021
Si      5.330263436600003     11.816915477499991      4.958467962800001
Si      0.228647755699987      9.838902392299989      5.563455538799999
Si     14.956317296699996     11.459977372599996      2.955434860500012
O       1.798869829399983      9.606254481299990      5.354350168800008
O       3.994616568799996     10.928255354000001      4.898004523100005
O       3.850632740299994      8.523056227799987      6.138414813300000
Si      3.336416781900000      9.468016994299990      4.968188881899998
O       4.319246342599978      8.133538694799995      1.174873732899997
O       3.775891914499999      8.683319495999996      3.651877854900012
O       1.426014149699982     13.896722052799985      5.819219139600000
Si      2.177004235599984     11.743672890299999      0.697864872999989
O       2.821749373000004     13.255321014699994      0.750257989300002
O       2.063653682999982     14.125099664899992      2.956971470299988
Si      4.753069040999996      8.532955361799994      7.429887879700003
O      14.311683218500004     14.360485549599998      7.305956443800012
Si      3.512673045099996      7.642990739199997      2.473957217900012
O       1.963774678299993      7.903802224299988      2.162565564399995
O       3.149644049999993     10.466389222399989      0.524932791799993
Si      2.282391471100000     14.646014708700001      1.431574681600009
Si      1.720684205899979     14.732490245799992      4.430320187600018
O       8.978618256799988      7.112933912599985      6.971679692100004
O       8.195468821599988      0.181546108299993      3.950259238300013
Si     13.220545329499990      0.153938770099987      6.410259069400015
O      10.088952623099985      3.138656286899998      1.057225353100013
Si     11.497992066499986      2.399802724499996      0.837085961599999
O      12.721396455899988      6.647340391000000      4.603705775900003
O      10.857707115599986      3.231576778700000      7.068704191299990
Si      8.731411134699975      5.908309529700002      2.903314265700012
O      12.649432129899987      4.935860999700004      2.711564500600012
Si     11.712214914899999      5.621095101799998      3.836177600599997
O      10.324746464599977      6.105263843800003      3.184318187100000
O      11.252126769699979      4.555450103000004      4.957336239300012
O       7.899866239099990      5.181421025399993      4.110781980100010
Si     11.653555953299982      4.521922382799996      6.512376208999997
O      12.498848767999998      2.507941346799995      2.096080372400022
O       8.510716643199997      5.084882764100013      1.523447687499995
O      13.227558400000003      4.234746876900006      6.677246790100005
O       7.276638772399986      2.688400107499999      4.026744725400013
Si      6.914553212400001      1.148979244400008      3.698817797100008
Si     13.471943949599980      3.549702621600008      2.828373524799994
O      11.178485497499979      0.825091131099992      0.687947803000017
Si      6.817463842899988      4.093695461400002      4.682187924200018
O      11.319814949700000      5.938425379100002      7.224374068300015
O       7.478396744999980      2.815941658600010      0.605385459600000
O       6.723625875500003      3.913405181499995      6.303994116000013
Si      8.725725165299986      3.826258022599999      0.532390912999992
O       6.409884570999999      1.041858289700003      2.154699930900013
Si      7.092506990700004      4.570531514499984      7.738825241500008
O      13.745868433399995      3.145156376299991      4.346790655300004
O       6.713932591799995      6.105384763299991      7.614055759500010
O      13.745678973599997      1.678672352599995      6.438299263100014
O       3.520014559299983      3.390555359299998      2.842484658500020
Si      4.560884639699996     14.870017640299997      5.374927805700004
O       4.621299134199997     14.903652139699993      6.993113873100000
O      14.930875026299997      3.617846724200012      2.154096019100016
O       3.837569460299986      6.108964686700007      2.849196971700006
O       0.358878855199996      6.090344957300006      5.511502731900016
Si      3.834471851599978      4.727258425699993      3.703192131300003
O       4.856623113899987      2.741750137499994      0.692602780499993
O       2.361282595099985      5.485753933399986      7.261866966000000
O       1.122121264499999      5.772881435099995      1.080694070700015
Si      6.214097889999998      1.830246070899997      0.735214957499990
Si      0.629185398099998      7.136162100999989      1.770481407699999
Si      1.523536672699993      5.027193878100006      5.942987085600010
Si     14.311013670000001      7.000485067400004      4.617633009000010
O       5.326731796499994      4.545494857600000      4.266424286200015
O       5.718623845900003      0.800415170399991      4.723462428600007
O       3.221365124499991      1.000967046099999      1.543616172100001
O      14.761668308000001      6.806046529900001      3.091018055500013
O       0.722042055799998      3.609209940700008      6.135453819800014
Si      3.412987141399979      2.614944175799997      1.425183698500009
O       2.129426890799988      3.307341622300008      0.683333934000017
O       1.035517341099997      0.263779600300001      0.522758376400012
O       2.667593276099991      4.857968078600000      4.810056220700011
Si      0.794981528200013      4.211561796800000      0.901759731899992
Si     14.142380793999992      3.144731894100008      5.909040183100010
O       3.118868233199981      0.488132033700005      4.874677177300000
O       0.263544145099981      0.408044033199995      3.962751383900010
Si     12.071170376399987      8.342930453400001     12.196330189599999
O      11.026466118499986      8.355499738399992     10.970056955499995
Si     10.597430815399989      9.287048164799995      9.732244323499987
O       9.145478227900002      9.921758316400000     10.107724262199998
O      11.242822113199997      8.598251816099999     13.553552435200000
O      11.402990322799990     13.026217242299991     10.181449873000005
O      11.552305311899982     10.545965365500003      9.465970649400017
O      11.177648994899990     12.668516908499992     12.904085377099992
Si     11.460496180099993     13.691189085500000     11.669067898799996
Si      7.645042675999995      9.595373289600005      9.643864289400007
Si     10.701500715999986     12.405464411699988     14.428934549200005
O      13.064306733699985      9.593266409300007     11.829771775400014
O       7.585456954599997     10.691203521099998     13.931777020300016
O      10.702251429299981      8.366519902899999      8.399475572600005
Si     11.756122796399982     12.047734203899999      8.921661698100001
O      12.954143422999994     14.295377537899999     11.817207819500007
O      13.273035165299996     12.108207449000002      8.390463508900000
O       9.132413995199977     12.737705226599983     14.555068932500022
O       7.113207536300001     10.856277883900002      8.779351236500009
O       7.818658613299976      8.209907576899994      8.857865288900003
Si      7.654255569499976     12.124298146700005     14.705536407500006
Si      6.792966737499988      9.287884124200005     14.168622126200013
O      10.866888844700007     10.859000495199993     14.785116485600000
O       6.637097606599998     13.191337099199986     14.085701439000012
O       6.945914720900001      8.138719353499990     13.024495880000005
Si     11.024265321799998      9.282322956999987      0.034893824100009
O       6.565150944999981      9.162440695099990     10.747696887500005
O       9.385467245699981     14.296071241700005      7.927726338900000
Si      6.479897879999998     14.615406333800003     13.364928999099991
O       6.965799389499994     14.838273263100000      8.075427185000008
Si      6.144578682200006      7.867854781099999     11.626967742200021
O      14.114355947900000     10.302545761800005     14.482571606299999
O      14.217057213399993     12.247995855299996     12.680484843099995
O      14.759232451899994     10.698635140599990      9.791714269000007
Si     14.428472677099993     13.710129098099991     12.048055411700014
Si     14.495702956899994      9.732529558199998     11.053489257600011
O       0.570839867900005     10.152857434100010     12.226235451699996
Si      0.085486020999989     11.098673455099991     13.449112246800000
O       2.978784214800009     14.061114356900001     10.823856103899995
O       3.053544101700007      8.208978124899993     13.915924556400006
O      14.667227931899987      8.280686874900002     10.418056340300005
O       1.272500275199994     11.723399682900006     14.322438116599997
O       0.330040283299987     13.742157522699994     10.669487161399996
Si      5.448549449200003     14.353514674599987      8.271215638499996
O       4.542922544199982      7.968707127999992     11.818587752700001
O       5.236157610000003      9.683610227999990     14.240741289600013
Si     14.634845310000005     11.265399445500009      8.282875645100001
O       5.259727659999987     12.733457437599997      8.406305682300012
O       5.340614034699982     14.372789201999991     12.224818014800011
O       1.657144089199979     14.601126467099991      8.536234299700014
Si      1.591732963800007     14.623302919300002     10.161065663700018
O       4.770936436099992     10.007554359100002      8.147156184500012
Si      3.903251662999977      9.143324548599995     14.947569523499988
Si      5.793638290700002     11.274360695399992      7.930370045899996
O       1.832211393600003      7.648627027999988     11.664477510900003
O       0.284897264199988     14.517967692399997     13.143019036000009
Si      3.183521451899983      7.422321040500005     12.507671460799990
Si      4.341616763799983     14.921217956700000     11.093066082099993
O       4.071862490299980      7.349924697700002      8.327274731800001
O       0.863911624300007     12.271531520900007      7.852408206699995
O      10.403290659399980     14.896915848099997     11.817553543400004
O       7.887875893099975      0.034080807899996     12.683713331199996
Si     10.244459334699993      6.870884823100003      7.993482916500004
O       8.830724704699977      1.830165500499994      8.085487462500016
O      12.814211122599989      6.890852435799992     12.355953126499999
O       8.442257393099997      0.428093528899996     10.204163620699997
Si      8.394376591699977      0.367318055599993      8.603783515599993
O       9.996286135299979      6.103214679900001      9.412387423400004
O      12.280487334599984      5.239633632500003     10.422082996900013
O      10.075078555399982      4.773271063899998     11.758329154099997
Si     13.350345514699997      5.529857798399993     11.610981532899993
O       8.839351015299982      4.221514573999992     13.932783614100009
Si     10.702407708599992      4.932988725099992     10.286207777900017
Si      8.931547690699999      3.804101479700001     12.375119349000004
O       9.222353325699993      2.222335483099998     12.140144263600009
Si      8.987174230999988      0.680735645500000     11.706452278899993
O      10.393900106899983      3.506251635600008      9.569368056799998
O       7.570298632699983      4.093219336499994     11.575037536399991
O      12.253834742699997      3.073096700300002     14.546035159000001
Si      9.689267399299986      3.171030600700003      8.159305191800019
Si     13.688949493499987      3.307698046900005     13.843674790999994
O      13.422143127300000      4.167312733299996     12.502187307400002
O       6.491473076199986      6.415415185600000     10.962095853900010
Si      6.393800816599989      4.785775293700001     10.738085292899999
O       6.428941473999984      4.228253294700006      9.187655476899993
O       8.678530397799994      4.381415618600000      7.850110103599992
Si      0.757061666799986      7.109775676099993     10.585270467800015
O       2.438446704499991      3.534070471400014     11.525318005300006
O       5.012386737799995      0.092213977199998      9.642648150100019
O       1.437346860700001      1.185112982199985     10.727941994900004
O       3.303902762200001      5.326512037800002      9.805261313999997
Si      3.495465969499997      4.727708984799985     11.302129620499995
Si      2.397864995199984      1.954926301799996     11.798027553499994
Si      2.841679727399997      6.288359213700005      8.588119447500002
O       6.111447310800004      0.786867198199990     14.466402473300004
O       1.499981403500001      6.966852975900000      9.167393788900005
Si      0.662234222600000      0.834307265300005     14.001821040599992
O      14.361781326299988      1.828761257699989     13.854136573000009
O       5.018435698199994      4.233531567199992     11.361119521800015
O       3.299463617999999      5.796771130200002     12.516458942399998
O       1.912201822399983      1.586812761299998     13.300383910100001
O      14.753475814399984      4.221710393800008     14.625784724800019
O      14.854680445299991      5.808491383899995     11.041561584300020
O       3.904179398299992      1.422909488300008     11.592617622200009
