216
15.012 15.012 15.012
 Si         4.0900964411        3.5662751102        2.4045424831
  O         6.4888898653        6.1005415721        2.4106179622
  O         4.6167428123        4.6137820459        3.5189379261
 Si         5.0919105982        6.1253959812        3.2187209586
  O         3.3509340069        4.4636691970        1.2513473833
 Si         1.6040166689        2.0425522397        2.8347268633
  O         3.1220209345        2.5002631495        3.1276208201
  O         5.3244650648        2.8248285669        1.7180153985
 Si         2.8014809418        5.9695554698        1.4751868741
  O         4.0002556720        6.7949115172        2.1998893852
 Si         5.8396993062        1.3435802834        1.3695070689
  O         1.6422222209        5.8657658452        2.5837661992
  O         6.5719356673        0.7780885112        2.7390047443
  O         1.3941827519        2.1791098142        1.2563068298
  O         6.5726605621        2.2263022728        4.9998734917
  O         1.0923828691        6.2576831790        5.2365247711
 Si         0.6586193578        6.4572573541        3.6957244208
  O         5.2227305447        6.8956868418        4.6182911546
  O         1.3230451356        0.4932391248        3.2026075432
 Si         7.2928229652        3.3956979630        5.8684474981
  O         6.1763521492        3.9062843487        6.9519314308
 Si         7.2239036243        0.9396742064        4.2442262817
  O         2.2676155169        6.7411618350        0.1427582232
  O         0.6183035288        3.0548682345        3.5880161178
 Si         7.1007477747        6.9557535300        1.1853811278
  O         4.5290003405        0.4430553462        1.0904095086
  O         1.2446369298        2.8062835048        6.9691865892
 Si         0.2222980236        6.5616185186        6.5766479584
 Si         0.4281193260        2.6963218206        0.0971636414
  O         5.9619076772        7.2611910575        0.0968711240
  O        15.0078942862        5.1471279631        7.3420421268
  O        14.3801616812        5.4849944809        3.5938583861
 Si        14.8089573601        3.5740499350        6.9339722390
  O        14.3248533103        3.7356701722        0.6372119709
  O         8.0649386505        4.4686819327        4.8458094811
  O        14.0791795256        3.5982267104        5.4797470147
 Si        14.2893386188        3.8866401160        3.9157165821
  O        10.1731219792        3.3705923590        3.6039950508
 Si        12.8872087728        3.7158791736        1.3729953494
  O        13.0661581109        3.4383539395        2.9617023383
 Si         9.6978333409        4.6414225810        4.4777577864
  O        10.3971224869        4.5459892853        5.9300792816
  O        10.3164660819        5.9270234899        3.6713279943
  O        10.0002517852        1.4897129679        1.8787892556
 Si        10.1269883088        1.7744415247        3.4475457695
  O        11.3373951985        0.9427104452        4.1503517970
  O        12.1846849340        5.1598597481        1.0886156631
  O         8.7677789517        1.2571568396        4.0658087963
  O        12.1165771353        2.4362095689        0.7729435965
  O         8.5542602470        2.8042728224        6.7201087859
 Si        10.8528429409        1.4724799795        0.5398042135
 Si         9.9216109165        3.5727698672        7.1254292353
  O         8.2147639768        6.1074135577        0.3945514480
 Si        11.0168327481        7.4129227219        3.8481992558
  O        11.4190172871        7.3640825700        5.4021460276
  O        13.8488357796        7.3391991647        6.2539858570
  O         1.0805983400        7.5838016065        7.4232425184
  O         0.5564715650        8.0674359363        3.4472404888
  O         6.3285821619       10.7270504155        0.7765687442
  O         6.1938722419        8.1220005220        6.8155099049
 Si         6.0583323156        8.1382984135        5.2329219402
  O         5.3233226634        9.5288506211        4.9201901647
  O         3.0605080848        8.9982506126        3.7615791538
 Si         1.2465864731       14.1405538137        2.3187474877
 Si         1.6857680937        9.1314528881        2.9250006092
  O         1.7937528495        8.9124440207        1.3626498366
  O         4.6972854369       10.8710537791        2.8114206052
 Si         4.1003031821       10.2008707516        4.1410016177
  O         3.4199241576       11.3296492135        5.0785537578
  O         2.7492001504       13.6798362082        1.9606940908
 Si         5.8025609225       11.6895319768        1.9776586069
  O         5.1579840038       12.9769359551        1.3196229597
 Si         2.2236600369       11.4028982339        6.1697851027
  O         0.7853683220       11.5742688103        5.3898178049
  O         1.4065801773       10.6995136730        3.0429464241
 Si         3.9696843511       13.9525338239        0.9440651381
  O         0.4030552378       13.0657547047        3.1953754003
  O         6.9477745345       12.3474655936        2.8974939229
 Si         0.3199175269       11.5740879977        3.8182128525
  O         2.2661969548        9.9760303637        6.9529758700
  O         2.4956858940       12.6934381289        7.1205247019
  O         0.6183948109       14.3941546940        0.8607163655
  O         7.2844459348       14.7033510907        5.3200202417
  O         7.5023048300        8.0511573314        4.5326589445
  O        11.9780131053        8.8336085786        7.5019190967
  O         8.2746542359       12.3370154346        5.2410166096
  O         8.2118096307       10.3062614309        3.5825108748
  O         9.5325845459       12.5059732682        2.8815568218
 Si        12.6385318443        9.8582035884        3.6513805571
 Si         8.4758700543       13.7707620300        5.9998098996
  O         9.8345195404        8.3801136131        3.4342107214
  O        11.7968447733       13.4473345494        3.6199490764
  O        13.9741514570       10.7805762118        3.4379841306
  O         9.9318038108       14.2311479419        5.4761071172
  O        11.1021153618       14.9480913846        0.2339382249
  O        11.5059164974       10.8506982851        3.0506624480
 Si         8.3001567062        8.7456055114        3.3237356992
  O        11.4913270910       12.5815572597        1.0121642718
 Si        11.3861629018       14.4674396373        4.8347541375
 Si        12.5429702987        8.2728584298        6.1229164147
  O         7.7356775174        8.2818120784        1.8740690690
  O        12.4256364266       14.2987056040        6.0908350440
  O        12.7408047504        9.6155666865        5.2475699843
  O        12.2781832736        8.2937885216        3.1390677650
 Si         8.2708487535       11.8909420574        3.6822262647
 Si        11.1190195407       12.3624276779        2.5966823574
  O         2.7146121975        5.1600418727       12.5033824897
 Si         5.2790139608        3.3855667171       11.1472731554
  O         1.4170772726        2.9650907935       11.6543734360
  O         5.1354576543        4.9463892834       11.4969247561
 Si         3.9567914412        5.9728706929       11.8590916475
  O         5.7883782190        3.3536628095        9.5709057920
 Si         1.4443125392        4.1866613569       12.7044196665
  O         1.9443264671        2.0275079213        9.3644203028
 Si         2.4350435435        1.9963441847       10.8847562006
  O         3.9017060148        2.5916317805       11.0341899324
  O         3.5334475321        6.6578645325       10.4518957431
  O         5.9486889139        2.8077755683       12.5163993211
  O         1.4185117357        3.5068286975       14.1522744975
 Si         4.2961218667        6.7492280236        9.0130990788
  O         2.5100001526        0.4775298444       11.4134941382
 Si         5.0579654882        3.7860480270        8.1444681287
  O         4.3801053642        5.2540875048        8.3662891994
 Si         7.0471612528        2.4579372341       13.6703913379
  O         4.5324176851        7.0553598560       12.9011153472
 Si         2.3906461993        1.9978158362        7.8207359473
  O         3.8499906640        2.7385368893        7.7341408844
  O         5.7915845416        7.3387780825        9.2266399882
  O         2.4171578244        0.3912491160        7.4304404219
  O         0.0816847542        5.0051325459       12.5893612403
  O         6.6324647227        1.4865904469       14.9364629431
  O         7.6693804724        3.7479032189       14.4483457309
  O        14.6972103700        1.3987867837       14.4746532575
  O         8.0505952453        6.7394117494        7.8982987885
 Si         8.6251563109        5.0295787686       14.2899297949
  O        12.4971572807        0.5366614907        8.3708933852
  O         8.1343728235        1.8038042842       12.6707218366
  O         8.4511118611        5.4829684730       12.7424177505
  O        12.6810229959        5.5464121838       13.6003977686
  O        10.5459252912        4.6035093259       11.2621888208
  O        11.8862590377        2.8110759521        9.6950929350
  O        12.9057543289        3.7627944386       11.8053219204
 Si        11.4964217627        3.3013874700       11.1573036127
 Si         9.5419412825        5.8186819665       11.6056566997
 Si         9.6639802014        1.3681492326       12.8114443528
 Si        13.5386502370        5.1693938664       12.2984470346
  O        10.7179318565        2.0416095915       11.8013757455
 Si        12.3446948637        2.1493054678        8.3155248041
 Si         9.2479047171        6.0599874893        8.7282739199
  O         8.7577710920        6.1741060457       10.2576157033
  O        10.0708312049        1.9558597887       14.2509228723
  O        13.5152005424        6.4140163806       11.2697315812
  O         9.5449051988        4.5258939252        8.3710453697
  O        13.7576878341        2.8136469025        7.8949457956
  O        10.4011673755        7.1058205435       12.0501264332
  O        10.6186298641        6.8742327154        8.5235334732
 Si        11.5584230494        5.7521614349       14.7203648329
  O        10.2333310949        4.8490885958       14.4633310209
  O        11.1698093207        7.3394180008       14.5546766501
  O        11.0981370349        2.5035830518        7.3461108994
  O         3.5270548660        7.8141243791        8.0604548816
 Si         5.0768023010        8.0534028684       14.0376342312
  O         3.6056976003       13.6142309165       14.4170867402
 Si         2.2505127017       13.9332542862        8.1485602033
  O         1.4820712746        9.2218071049       13.8410547518
 Si         2.9527703016       13.9896353491       11.0093654903
  O         3.2799414742       13.9106506509        9.4221139724
  O         1.7148209887       13.0537032355       11.4085567960
  O         4.1542469008       13.3687262441       11.8914856260
  O         5.9328311719        9.2945825286       13.5060606916
  O         5.5559370440       11.9041205237       13.5405348482
 Si         6.4156457571       10.6855315526       14.1695237333
 Si         4.0962492793       12.5491455455       13.2954144267
 Si         1.6361231547       10.6173839345       12.9995289801
  O         1.6396254946        9.1397265599        9.3017223649
  O         3.0341555203       11.3305297857       13.3691334684
  O         1.6518128389       10.3103237005       11.4349051535
 Si         6.9287088332        7.8750338002        8.2161993648
  O         0.7972215106       13.6895381758        8.8286865697
 Si         0.6432295466        9.8942468278       10.2684437669
  O         0.3833126155       11.6725238658       13.1340077954
 Si         0.3170712823       13.0226245259       12.1996667106
  O         3.8368726824        8.7539356375       14.7759350312
 Si         2.1620949661        8.6555280498        7.8893504966
 Si         2.3001770352        8.3863672882       14.9745804167
  O        15.2456017276       14.3032039977       13.1501509248
 Si        10.2247941469       13.4009213947       12.0691920559
  O        15.0139511463       11.1629398029        9.4613036006
  O        13.3795591608       13.9916519231       14.8509433120
  O         9.5548925001       11.9881652951       12.3463488397
  O         7.5877434746        9.2253141227        8.8269910742
 Si        11.2479273166        8.3206469305        8.8209351189
  O        13.4354691300       13.0657508833        8.3669667607
  O        14.2429899836       13.0658134313       10.9740829671
 Si        12.3365122641       14.0646420331        7.7129768626
 Si         9.5732021661       13.0516162890        8.8415655961
  O         8.5250944126       13.6822923345        7.6594469005
  O        12.3499760061        8.2166799427        9.9375396617
  O        10.1590570085        9.4673443360       13.1463224801
  O         9.6145080541       14.7912079348       12.5890654303
  O        10.0137596874       13.5330305011       10.3993324397
  O        11.4852037250       13.2814461040       13.2035327012
  O         8.4429572092       10.0032275178       11.1808245952
  O        12.5248789242        8.5078396144       12.5652071119
  O        10.1578962072        9.3749981250        9.3035123846
 Si        13.2683064271        8.0089721478       11.2074213156
  O         7.9627828748       10.7170681134       13.7636858028
 Si         8.7406429524       10.0633143713        9.5899471460
  O         8.9165605525       11.5833645068        9.0659357170
  O        14.5603036361        8.9188469120       10.9432766111
 Si        14.6252465183       12.7436151566        9.4046963556
 Si        11.8306812331       13.6136751898       14.7810684013
 Si        11.0534374555        8.1303891089       13.1217325106
 Si        14.7390254059       14.7909198851       14.5992821873
  O        10.9578339118       13.2926187756        8.0538221997
 Si         9.0367225127       10.5024985743       12.6018453905
