216
14.934 14.934 14.934
 Si         2.1747953860        3.9161449587        3.7754316169
  O         0.9067261112        4.8960548229        3.5650805211
  O         2.6490878939        3.4031524879        2.3288084619
 Si         4.7431224139        5.2101850595        4.9628138757
  O         3.3191726674        4.8212674093        4.3892284632
  O         4.9820147594        4.2368138995        6.2257662312
  O         1.9877293590        2.6650496074        4.8027931850
 Si         6.6755409548        5.8817766102        2.6540053883
  O         5.8948484532        5.0745966340        3.8281983846
  O         4.6544673656        6.7277698284        5.4753758799
 Si         2.4817670453        2.4413277874        1.0631803180
  O         6.3162047930        1.7359448686        1.1662766600
 Si         1.3167263763        1.8147700327        6.0040616106
  O         5.6487569895        6.1372889603        1.4094547732
  O         1.6623449998        1.1614982703        1.5709797221
  O         7.0332842727        2.7377271979        6.1573526014
 Si         7.1178081402        1.4396167211        5.2043840485
 Si         6.1986796900        3.7103001849        7.1397297371
  O         1.3311414662        0.2445557985        5.5612715590
  O         7.0612021885        1.8262056879        3.6448926150
  O         3.8864458911        1.9943523884        0.4964853629
  O         5.9681565024        0.3423051938        5.4706811550
 Si         5.2875592766        1.5144247652       -0.0335109825
  O         2.0801665095        1.7448346939        7.4332916309
  O         7.2230019510        7.2885475722        3.2236492827
 Si         4.6505134616        7.3864524517        1.2049729866
  O        14.8326324224        2.5814189144        6.2417838565
 Si         7.5670028219        1.5563541799        2.1436782931
  O        14.6872052786        4.8071384713        0.2532542016
  O         7.9638631801        5.0678328242        2.1436099026
  O        12.6200625455        3.7251214480        7.1237935879
  O        14.3718725869        0.2386422655        0.6582950748
 Si        14.2690348799        5.2676351252        3.6583125880
  O        13.9319503645        4.9019669356        5.2150548414
  O         8.6411697055        2.6539611035        1.6502755279
 Si        14.1047752753        4.0104181625        6.5687985920
  O         8.5513135097        0.8247435295        5.5554270461
 Si        10.1169417869        1.1383024319        5.4803500827
 Si        13.3706983836        4.2033558029        0.9565089333
  O        13.5168097509        4.3154458221        2.5706777840
 Si         8.4443764109        4.0953809700        0.9510675021
 Si         9.9891504504        6.6058049890        6.2837092725
  O        10.5358369507        2.6452304252        5.8118122672
  O        10.6229802844        5.1474184736        6.1349430702
  O        13.8497628548        6.7999235222        3.2373720271
 Si        13.0046989156        1.0672280125        0.6145367174
  O        10.6092879204        0.8278759126        3.9841960739
  O        12.2754609546        0.8330385758        2.0204205013
 Si        11.0345612014        3.7696876277        6.8356083605
  O        13.1975548347        2.6653808550        0.4962631564
  O         9.1349786637        6.9574035909        4.9751758740
  O        12.1955708668        5.1490563282        0.4151728916
  O         8.2097022138        0.0866049449        1.9868471320
  O        10.7884713443        0.1685286789        6.5522875681
  O         9.7873324232        4.4755562107        0.1658964315
  O         3.5829939472        7.2869413757        2.4146193635
 Si         0.9744218365       14.8012465221        0.9201111540
  O         1.4847841052       12.9478748109        7.0398723290
 Si         3.8030318096        8.0548176650        5.7592240407
  O         3.7364996556       13.9446786756        6.0607060155
  O         2.6488689833        8.2935299944        4.6386694357
  O         5.3112762164       11.1149476329        0.9916398587
  O         6.0470378270       10.4546440622        3.5826809810
 Si         5.1799929051       10.0868902822        2.2444222246
 Si         2.7904602241        8.5362977522        3.0468237108
  O         4.8201749480        9.2900780065        5.6333380315
  O         3.6544010259        9.8794733429        2.7438216026
 Si         6.2097514785        9.9532696002        5.1616694177
 Si         1.0131434249       12.6092029345        3.2188503099
  O         2.0717390687       12.9400453408        4.3954007692
 Si         2.1566892316       13.7745050445        5.7869919177
 Si         5.1709461865       14.4500441753        6.6039752405
  O         1.4154782636        8.6276205796        2.2412098648
  O         5.5568830156        8.6990906077        1.4904063135
  O         6.5514027835       10.9535852154        6.3761289570
  O         1.1571892774       13.6103070776        1.9787784915
  O         1.0791933355       11.1150860907        2.6525241693
 Si         0.4775154114        9.8685602144        1.8327043828
  O         6.1319065389       13.2897108598        7.1423038355
  O         0.5097147643       10.2135769530        0.2563178863
  O         3.1582965609        7.9573114946        7.2272584171
  O        13.9434186401       13.1979567537        6.4309025912
  O         9.7747968871       12.1056203184        4.3417010485
  O         7.4695097997        8.9598234293        5.1446263570
  O        12.2741621906       12.0321535541        4.8943610868
 Si        11.7511435891       14.9131574674        3.2539819913
 Si         8.6840067053       13.9683054197        0.8547720301
  O        13.9592039684        9.3739402440        2.3215842779
  O        12.6095395772        8.7129743538        4.4893253045
 Si        10.2120851786       12.2621852635        2.7670412610
 Si        13.4045752499       13.1635413901        4.9212992173
  O        11.6927699652        8.2830983212        2.1701609735
  O        10.9388407709       10.8613922741        2.4048248868
 Si        10.8313321209       11.6915339169        5.5189448458
  O         9.7002179229        9.3013324226        0.7631541729
  O        10.6237115631       12.5242303631        6.8823070824
 Si        10.4470320533        9.3288373929        2.1839984882
  O         9.0536978104       12.6106354265        1.6734978169
  O        11.2095574791       13.5199633510        2.6555042526
  O        14.5116259025       12.6988095354        3.8943428608
  O        11.2007687922        7.6353141885        6.4710863279
  O        12.8588197228       14.5924119406        4.3972418629
  O        10.8679110951       10.1249728622        5.8876535868
 Si         8.3131563717        8.0442823983        4.1338301378
  O         9.3670063871        8.9511494175        3.3182928948
 Si        13.0729563946        8.2319206123        3.0408138147
 Si        11.9629973132        8.9315785889        5.9301817234
  O        13.2054495363        9.2187576683        6.8814257059
 Si         5.0795926260        1.5283137959        9.0260031599
  O         6.5467174992        4.7203691283       12.3618287115
  O         3.6077934525        1.7492845218        9.6227893918
 Si         2.1616470649        2.0697251895        9.0152325766
 Si         5.7466734941        6.1058197075       12.4741011272
  O         4.3295600679        5.7056096412       13.1073343051
  O         1.0750328567        1.2389327042        9.8726481855
  O         5.7260093270        2.4041876980       13.6114907651
  O         1.9800989596        3.6632652902        9.1236861223
  O         1.2326832098        5.9747703907        9.9644699699
 Si         3.0987724529        6.6035685810       13.6126419386
 Si         0.7129565581        4.6460610625        9.2150928840
 Si         1.0038786311        4.4814608800       14.2461711456
  O         1.9964330154        5.7282913371       14.3588781414
  O         5.7202378620        2.9019266457        8.4566688583
  O         5.4780378521        6.7922914725       11.0399961542
  O         5.9752654699        0.9125199002       10.2004169174
  O         0.5781850826        4.3140817529       12.6949672735
 Si         1.5313947140        7.2777763401       10.9028134160
  O         4.8980137068        0.5082280383        7.8164914723
  O         2.4071881828        7.2152313527       12.2733480076
 Si         6.8941373171        3.4981904470       13.3525048979
  O         7.1276612483        7.2777183712        9.1292108807
  O         6.5503074218        7.2191537838       13.3571493666
 Si         0.0886805184        0.7285620667       11.0539395109
  O         7.0412365492        4.9879580504        7.6264861295
  O         3.8146621423        7.5427839891       14.7492920270
  O         5.2209758277       -0.0678406760       14.5904567158
  O         1.7294198508        3.1523599064       14.7676134399
  O        14.9466257777        4.8046209652        7.7395912207
  O         7.2875275338        4.1335350325       14.7710040272
  O        10.2828171734        6.9762371061       14.8525242303
  O        14.5992373278        3.9132819980       10.1930866053
  O        14.6033337501        1.9949898384       11.9609360521
  O        12.2039050927        0.4987230177       14.2746438175
  O         8.3949729983        0.6639339382       11.1249899191
  O         8.1311986012        2.7381410728       12.7019432225
 Si         7.9235417569        6.0036357027        8.5150497487
 Si        14.4224185890        3.5767282396       11.7540746158
  O        10.2860917783        3.5865157279        8.2461511509
  O         9.7080857422        2.8187460871       10.6310140193
 Si         9.1465680530        1.8996916577       11.8077384857
  O         8.6244586174        5.0724567688        9.6400419431
 Si         9.9245184980        4.1140418683        9.7229683842
 Si        12.0233114143        5.3579578255       11.6177305431
  O        11.1144857282        4.9722583417       10.3626054381
  O        12.9639738088        4.1402768456       12.1137766022
  O        11.1113509659        5.5661151618       12.9366175542
  O        10.2839432553        1.3277986700       12.7840150000
  O        12.8569431545        6.6225803926       11.0379527654
 Si        10.8666480047        5.5246213989       14.5376937255
  O        13.6242053299        0.1857993101       10.4547105167
 Si        10.7945977698        0.0594401437       13.6433566756
  O         9.0461515453        6.6475720060        7.5722282167
 Si         6.9869788152       14.8630683105       10.9543656154
  O         0.7752287602       14.5095749101       11.9545782200
  O         2.3282863584        8.2128267423        9.8641799042
  O         6.3970605081       14.4400516889       12.3696882163
 Si         5.3490128712       10.9164083229       14.2979518884
 Si         2.3350720374        8.7767540455        8.3465077106
 Si         6.2361015735        7.9962458084       10.2710576937
  O         5.6376293454       12.3631967388       13.6820464900
  O         3.0714036431       10.2045569505        8.5508642002
 Si         6.2015966693       13.8383437339       13.8370258396
 Si         4.3235379966       10.4260117928        9.5671154483
  O         3.7285681063       10.8683052195       11.0325776167
 Si         2.9596355268       11.1041890073       12.4596354235
  O         5.1533753469        9.0359898085        9.7007928755
  O         1.4942378766       10.3766507484       12.6975785065
  O         2.6434487619       12.7024016014       12.6114823940
 Si         1.3438591704       13.5476382108       13.1251461496
  O         5.3205884861       11.4477837359        8.8020206038
  O         3.8972847777       10.5392377950       13.6696523278
  O         6.4684966219        9.8630030917       13.7715840709
  O         0.2526320504       12.4419518874       13.6102054921
  O         0.8332651383        8.7902531780        7.7854363177
 Si         0.2651022788       10.8188330417       13.7081941314
  O         1.6649878512       14.4356207255       14.4366643721
  O         7.1309425543        8.7933542767       11.3736507890
 Si         6.4854429780       11.8337848246        7.7262476592
 Si         7.2310000677        8.6595066894       12.9952094201
 Si        -0.0145164927       12.5871886591        7.5647666081
  O        11.4374632767        9.0445323079       13.7680697408
  O        13.7009590713       10.3710848282       13.3556006209
  O        15.0390646701        7.8893742241       11.3611662028
  O         9.8863468696       14.6019193194       14.9233439747
  O         7.5516576078       13.6908525377       14.6909773305
  O        12.3575736538       12.8451183887       10.6216799913
 Si         8.6422977635       12.8828066068        9.4713936766
 Si        13.1421766327       13.8388901121        9.6221135672
 Si        10.0494141142        8.4867554231       14.3662273829
 Si        12.2685356296        9.9719349612       12.7562118755
  O        12.0977395579       14.1793840909        8.4607835714
  O         9.4580247543       14.0084401912        8.6260133134
  O        14.5123764371       13.2781096450        8.9655460321
  O         7.3129339335       13.5288943947       10.1229525507
  O        13.6966679877        8.7084413671        9.2860762255
  O        10.8670029316       13.7612687106       12.6060390006
  O         9.7036274481       12.3640430015       10.6113570171
  O         8.7982737142        8.6305231957       13.3609231833
  O        14.6750406024       11.0303993035        7.8897095864
 Si        13.5499752348        8.0576257839       10.7570277399
  O         7.9561989311       11.7896500858        8.4639277231
 Si        11.0461063773       12.5675336818       11.5333079658
 Si        10.7347044031       13.9491324467        7.6416895796
  O        11.3478505484       11.2220318371       12.3609397829
  O        12.6043510821        9.1278990002       11.4515740465
 Si        14.3177048702        9.4530597700        7.9898206932
