216
14.784 14.784 14.784
 Si         5.0738708368        6.4796673581        4.0539314846
  O         2.1254233765        2.3884855880        5.2694161146
 Si         1.3963109627        1.1167141966        1.3029058202
  O         4.6793291437        5.1723991743        3.1981599923
  O         1.3892350869        1.7234497033        2.8055303995
  O         1.3791063040        5.9110604026        2.2308547140
  O         4.5198821907        3.0226216353        1.6314167772
 Si         4.6401223964        4.6310537778        1.6754362898
  O         4.6038248954        6.3294669974        5.5795899455
 Si         2.8102634619        2.8036567000        6.6935569199
  O         2.0253433606        6.0160446768        6.0039434713
 Si         0.9341874637        2.5148529347        4.1494303482
  O         3.4115257998        5.1903080049        0.8217462809
 Si         3.4933702348        5.7533639627        6.5590253864
  O         2.9547930954        0.9858189141        0.9069740120
 Si         1.9305154159        5.7747936806        0.7377779521
  O         6.6678125107        6.6539240578        4.2591032986
  O         5.9647971365        5.1779530058        0.9870851067
  O         0.4188971113        6.9006123653        4.3647560801
  O         3.6171451667        4.1810439064        6.5809393124
 Si         0.2864556786        5.6106310238        3.3679609046
 Si         4.2108125021        1.9065531870        0.4926147020
  O         0.5755943990        4.1023327049        3.9391353069
  O         5.5089409887        0.9900916940        0.2445014832
  O         6.6504077481        2.8869286717        7.0523379150
  O         5.8459342752        0.2474910673        7.0718565369
  O         0.6551184128        2.2138103642        0.4007015770
  O         4.0275766470        1.8845532978        7.2273897338
  O         1.9750476728        7.2308008973        0.0673898888
  O         0.9923201895        4.7696181780       -0.0863784923
 Si         7.3402791959        5.1119332535        0.2019243089
  O        14.3818141646        1.7231194074        4.6019052489
  O         7.7106456569        5.2393421412        6.3372239707
  O        12.1510656575        6.0559795757        0.5753457720
 Si         7.7381830272        6.6312461923        5.4873046603
  O        12.7313060008        1.0668536196        6.3997513172
  O        13.5613720534        5.6749066353        2.7825827193
 Si         9.7180039899        3.8871299163        1.8832289421
  O        10.1012967853        4.6096125488        3.2856863676
 Si        10.4805458008        5.9647447122        4.1161951518
  O         9.3574546202        2.3647090747        2.2168248182
 Si         9.2386326264        0.8846160811        1.6113684212
  O        11.4920011290        5.6587310562        5.3369083550
  O        11.2534062465        6.8905927539        3.0276283699
 Si        12.5211093640        6.6780613022        2.0326729868
  O         9.1946916429        6.7246985147        4.7628242893
  O         8.4524913730        4.6108037359        1.2305103975
 Si        12.1139771343        5.3451121259        6.7856104137
 Si        13.4493159662        0.4878239636        5.0508775817
  O        12.6461175551        3.8022279269        6.7390341217
  O        10.8600035396        3.8612644376        0.7441380630
  O         7.7026930540        0.4048905748        1.6365326732
  O        13.2218799448        6.4860792963        7.1510526676
  O         9.7748886198        0.8330833989        0.0854865845
 Si        12.6356379752        2.3305640860        7.4278700168
 Si         7.5192681431        4.1740014421        7.5572899763
  O        13.3862049991        3.7699147983        0.0823288907
  O        12.3272068899        0.0941488514        3.9501391278
 Si         6.3025864748       14.6377942572        1.0643144116
 Si         1.3925246541        7.4218580978        5.5581225980
  O         0.6601950068       14.4642034485        0.9780476442
  O         3.5970361630       13.4702687280        6.9826089441
  O         4.2712363325        7.7447016652        3.3882268992
  O         0.5797425534        8.0332742993        6.8115475617
  O         5.3358491645       14.2932994536        2.2959435452
  O         2.8823602441       10.2645935187        3.5431180753
  O         2.2226613812       11.4215374082        1.4687475942
  O         2.6222790199        8.4544047719        5.2507427805
 Si         3.7205371865        9.0636865868        4.2030724515
  O         5.0265028447       13.9640327319        4.8272388436
 Si         4.7726576266       13.2872287868        3.3925867341
  O         5.5051768812       11.8819026264        3.1164543831
  O         3.1989724508       12.9722299690        3.2912252210
 Si         2.2697523991       11.6790172071        3.0441749300
  O         0.8289561499       12.0658392638        3.6880070445
 Si         6.2708353452       10.6530745521        3.8070938678
  O         5.1602419835        9.7600198543        4.6075910105
  O         1.3927510460       12.2441473778        6.1625653525
 Si         5.0616455121       13.7728837426        6.4238870994
  O         5.8165186520       12.3972515363        6.7429060331
 Si         1.1860783906       10.7331052001        0.4694467504
 Si         0.1696151225       12.4173754627        5.1283213759
  O         7.3152267544       11.3194111938        4.8223680353
 Si         7.2405989698       11.8157224842        6.3408133192
  O         7.1504990230        9.8586795248        2.7152589145
  O         6.5522095865       13.3822114700        0.0805996482
  O         7.4799297856       10.5174776794        7.2189439921
 Si         9.6900172203       13.6900316720        6.5051308901
  O        13.1342548182        8.7853652388        5.9270560133
  O        10.1922755131       13.7967113583        4.9977885257
  O         9.7632873549       10.5127794877        2.4635271129
  O         7.3905286751        7.8829535184        6.4862959236
 Si         8.3956748534       10.1102223300        1.6974042846
  O        10.5940591192       12.7346544718        7.3915179175
  O        10.1026588110       14.7005725122        2.5437065954
 Si        13.7883845034        8.0151408298        7.1981720252
 Si        13.3642957677        9.5096309800        0.9695905922
 Si        11.2860689537       10.9470695963        2.8077319799
  O        11.7477152303       10.2566586667        4.2031737525
  O        11.4198455204       12.5428000091        3.0342293352
  O        12.2399879864       10.5165203980        1.5650779855
  O        13.1446123312        8.1124842128        1.7185845653
  O         8.6017358123        8.7657695841        0.8316644464
  O        14.8694057591        9.9465332167        1.3416875597
  O        11.7490653701       10.5900314486        6.8912611066
  O         8.2251974154       13.0578517490        6.5017945273
 Si        12.6057841513       10.2628158529        5.5718650900
  O         7.9626839728       11.2552102957        0.6593678082
  O        14.3058939567       13.9014450630        5.2615950463
 Si        11.0173847599       13.9840209611        3.6318355651
  O        13.7987051854       11.3366519974        5.4222943731
 Si         3.6080089310        2.2419315376       12.3291395320
  O         5.0107931186        2.3107713552       11.5770218380
 Si         6.2882749037        1.8524525066       10.7535875161
  O         2.5503661674        3.2978607283       11.7383253383
  O         5.8967708172        1.8884407356        9.2004030434
 Si         1.0368387903        3.8507212647       11.6327025928
  O         0.9010084023        5.4305873506       11.9161478708
  O         3.8503526882        2.6230496430       13.8772986450
 Si         0.6090994763        2.5096044236        8.9720182515
  O         3.1180255863        0.7428112500       12.0746279995
  O         1.1411798646        1.1783168172        9.6965949445
 Si         1.1450263858        6.8649760498       11.2596717482
  O         2.0437544243        6.5790331788        9.9512551327
  O         0.5004016100        3.6178125718       10.1314981141
  O         3.6929079728        6.4901850488        7.9543306354
  O         6.7359774967        4.9277477478        8.7842682995
  O         0.1682460678        3.1343186676       12.7991544572
  O         1.6412195381        2.8836924822        7.7983502652
  O         7.0667984165        7.3122621655       10.0351879905
  O         6.9176066870        0.3938530319       11.0140581101
 Si         5.6036373585        1.7550696822        7.6215722933
 Si         0.0956698166        3.4721872425       14.3819953834
  O         7.4794054516        2.7838240190       11.3225277425
  O         7.1470732670        4.0909327039       13.7387805881
  O         7.1370434862        5.2642985329       11.4215436408
 Si         3.2161284837        7.3537835576        9.1990321631
 Si         7.4576174572        5.7969826303        9.9489083131
  O        11.0123818845        5.4174622772        7.9569170328
 Si         7.7619441180        4.0517044113       12.2579308432
  O         9.0234379500        5.8482856934        9.6223779210
  O         9.3437412359        4.2036529195       12.4121047986
  O        11.7532221950        4.6057444001       13.0709344406
 Si        10.6659063228        4.9698284940       11.9253281956
 Si        10.0404800267        4.7571641046        9.0347390987
  O        10.9216793566        4.4237933725       10.3914451434
 Si        10.4509891439        0.7542518085        8.6516978320
  O        10.5185360629        6.5731768867       11.9977855729
  O        13.9291523694        2.2854789895        8.3754228257
  O        11.2614552103        2.1350134697        8.3010698273
  O         8.9818478988        3.7719703191        8.2127850285
  O         9.2754410587        0.7336121270        9.7742879594
  O         9.2777038553        0.3184591865       12.3313607995
 Si        12.0178099193        4.5831661838       14.6743473892
  O         7.7156089523        6.5748759173       14.4537733130
  O         9.7681771987        0.3296729386        7.2439409276
  O         4.4609695308        7.4014527822       10.1939178421
  O         1.8105866287        7.8823780867       12.3144656420
 Si         0.8926229280       14.3875718040        9.5949241251
 Si         0.4743259119       13.5749707090       14.3901870831
  O         1.6344926694       13.7099823026       10.8431957806
  O         1.4779474938       13.8738716894        8.2110158819
  O         6.4929859899        8.9425757426       14.0367036801
 Si         5.8055688921        8.2587244430       10.0932644674
  O         1.7227907859       13.9609910520       13.4688477887
  O         5.8270460445        9.0383589844       11.5012289128
 Si         2.4355037400        8.2973072343       13.7392081584
  O         4.6950954608       10.7465206559       12.9691629999
 Si         2.3532950440       10.2920935460        9.4975527703
 Si         2.5659791452       14.0349579535       12.1185034464
  O         3.7739876210       12.9837966837       12.0737668764
 Si         5.2673275831        9.2287698209       13.0231230423
 Si         4.4244713627       11.5949257364       11.6068068753
  O         4.0404885906        8.3043791651       13.5399687083
  O         5.8392478353       11.9081183032       10.8456297186
  O         3.3707895671       10.7574692656       10.6795558329
  O         2.8031814066        8.8736941792        8.8649964343
  O         5.9844303126        8.9693576051        8.6311576520
  O         0.8270550673       10.0266137268       10.0143453106
  O         2.4596350123       11.4284509599        8.3694568724
  O         1.8990111389        9.7533575921       14.1970659282
  O         0.4800799646       11.9777024291       14.5375078210
  O        -0.1782956995        7.6122001257       10.7466532915
 Si         7.3236557460        8.9886580026        7.6744094480
 Si         2.2548980090       12.7211178715        7.4317062625
 Si        11.2993986325       11.5082997294        8.1090076363
  O        11.5809033742       14.5365177726        9.1964229506
 Si         8.4802878977       14.7435712077       10.9708741380
 Si        14.2848420631        9.0826345653       10.1521204925
  O         7.3973006802       11.7414074392       12.8844990721
  O        12.4006756664       11.5312512983       13.0636430131
  O        12.4957004332       12.0841265713        9.0261573754
 Si        12.6513481072        9.9569319838       12.7768127597
  O        13.8606553867       13.7994005894       13.6180946318
 Si         9.2408985782        9.7443454624        9.7129789241
 Si         9.8632976347       14.5006128640       13.7123895696
  O        13.6395125333        8.7867968539        8.6502544692
 Si         7.4226934625       11.8559885747       11.2573849525
 Si        12.5570772980       13.1370083869       12.9162230041
  O        10.3289881401       10.7528553302        9.1154338391
  O         9.9432655936        8.7050764350       10.6769679777
  O        12.4854078950       13.3894015545       11.3417074639
  O        13.3915144607        9.4412778179       14.1306048717
  O         8.3554368928       13.1288277424       10.8321768180
  O        13.3877290768        9.7764064485       11.3281377557
 Si         7.8954378073        8.1623713393       14.2912916977
  O        14.1292977163       14.0524982453        9.5271507081
 Si        12.6616848287       13.5098033068        9.7715954994
  O         8.8698173798        8.3752667193       13.0432806791
  O         8.6445346418        8.8038494567        8.5541149158
 Si         7.7004553389       12.3742443385       14.3392707208
 Si        10.1706893763        8.1358455998       12.1386685215
  O         9.0390975376       13.2256459651       14.2072024204
  O        11.3502153472       13.9642271591       13.5559596115
  O        11.3385598439        9.0398645121       12.7563510791
  O         8.1202470720       10.5973670871       10.5162844142
