216
15.043 15.043 15.043
 Si         4.0841369081        4.9554367795        3.3664901386
  O         5.5909822973        4.5389119361        2.9054626397
  O         3.5244737226        3.9975312538        4.5466579697
  O         4.2209536428        6.5064281008        3.7705577108
 Si         3.0145672307        3.3581474371        5.9393545335
  O         2.9757843334        4.8531228240        2.1836192981
  O         2.1964632506        1.9565858315        5.8007451034
  O         4.8492249245        2.4160546300        0.8529683927
 Si         2.6240405755        5.2567228546        0.6561560780
 Si         4.3788773484        0.8638110927        0.9538253236
  O         2.1295496219        4.4447003938        6.7412008757
 Si         2.0897070650        0.3393655859        5.8138059998
  O         2.7788556149        0.8631971818        1.0911089912
  O         4.3091061028        2.9699280128        6.8109904951
 Si         7.1846787692        4.5788886998        3.2117443706
 Si         1.3576195975        0.2369889501        0.6988722504
  O         3.0592618274        6.7745794541        0.3945846490
  O         1.1178005519        4.9439499705        0.1547835840
  O         0.4693284506        6.4010114421        6.9012882222
  O         1.4901184021       -0.0877599671        4.3894474607
  O         7.4370227274        3.9842992329        4.6955444214
  O         7.7545807003        6.1005206472        3.2807096393
  O         7.9951416735        3.6846659743        2.1091108951
  O        14.3328793894        1.1754208106        3.9128614060
 Si         8.6713380749        3.5465737457        5.6334834077
  O        11.7544470586        5.6395760254        2.5099698092
 Si        13.1645016010        4.9909401508        2.8662252382
  O         9.5644612853        4.8237417911        6.0397492745
  O        13.4728769620        2.9774064173        5.7156793523
 Si         9.5996579632        6.4003418780        6.3722421405
  O        11.8408121967        1.4139821924        4.3752874530
 Si        13.2001977365        2.2467776460        4.3119986361
  O         9.5535406027        2.5051357253        4.7865270144
 Si        10.2725940041        1.2123248758        4.1712689854
  O        13.0846660861        3.4311287476        3.2161176570
  O        13.7161910539        5.8857368177        4.0682002520
  O        14.1729100401        5.2568496309        1.6622616140
 Si        10.0257866679        0.7051530758        1.0901222758
 Si        10.7548047099        6.2301108460        1.4058259848
 Si         9.0320584704        3.6482039974        0.8447390765
  O         9.9569850404        4.9330221484        0.9449093406
  O         9.8683782721        2.2636387642        0.6179135597
  O         9.8721599288        0.9307548145        2.6596439372
  O         9.8024738358        7.2839333707        2.1992734034
  O         8.1461802992        2.8914856811        6.9949826926
 Si         8.8351130346        7.2918141615        3.5155513048
  O         9.6413041689        7.1228740183        4.9214958323
 Si        13.3371716631        3.5624054566        7.2009528065
  O        10.8153274751        6.8051237416        7.3636944940
 Si        14.5528423597        4.8174215312        0.1834786177
  O         8.2747667064        6.8202545236        7.2059661014
  O        11.5124838564        6.8146568058        0.0979681409
 Si        14.1375695403        7.4387496280        4.0737633524
  O         1.0990207230       14.8066587546        6.9695965395
  O         0.4753680622       14.8122479410        2.0125928229
  O         0.6864293786        7.5116576062        3.7671900027
  O         4.4620799745        8.0788090684        5.7889167214
  O         3.5273562752       14.6364844615        5.9561118621
 Si         5.0215480071        8.6197799566        7.1848834269
  O         4.7882344811       14.9688304110        2.1959159367
 Si         4.2707946325        8.0488607195        4.1902057583
  O         1.4802469512        8.4587244839        1.4069961272
  O         2.9216138165        8.7859798701        3.6820457857
  O         3.1181486390       12.9209408609        1.4027476579
  O         3.3888626860       11.9210843975        5.8911475606
 Si         1.4775659911        8.6962705924        3.0005806554
 Si         4.3350104336       13.4146005694        2.3346231327
  O         3.7704025397       13.1730676818        3.7881793354
 Si         4.1121747283       13.2536893321        5.3364816809
  O         5.7066868762       13.1566685620        5.5590734078
  O         5.6433258738       12.5508232833        2.0487655292
 Si         6.5214499408       11.5777122562        1.1315914265
  O         5.4868470033        8.8541589523        3.5236941796
  O         0.5718648900       10.0286599542        3.1377781485
 Si         6.8469131839        9.7159707992        3.5422297139
 Si         6.9351952598       12.1100806396        5.6818065364
  O         7.0556344286       10.4272551663        2.1131242768
  O         6.7440759329       10.7996114969        4.7595181142
  O         7.0524995390       11.7617027007        7.2541041851
 Si         0.2734623429       10.5373086607        7.1765669051
 Si         3.2857991949       11.2433105117        7.3364206199
  O         6.6352684408        8.8431770421        7.2156151878
  O         4.3069559596       10.0208546229        7.5189823287
 Si         2.1686722071       12.5797532019        0.1395855971
  O         1.7834222429       10.8193908358        7.6041192526
  O         1.6348794194       14.0350945099       -0.3141350193
  O         0.7960872433       11.7534896435        0.3927390974
 Si         0.0948625405       14.8458693220        3.6108216949
  O        14.9568935805       11.4404251093        5.8681772480
 Si        14.2252009222       11.6636194223        0.1833057068
  O         9.8708055988       14.8880435243        4.8569347395
  O        10.3486512202       13.3254031619        6.8303909326
  O         8.8579998305       14.8061657294        0.4728013871
  O        11.4255839078       14.9579133595        0.7744395559
 Si        14.4367927561        7.5934996234        6.9639041771
  O        13.4764579905        8.5370247129        3.0494076996
  O         8.3824538882       14.8984701535        6.9748336163
  O        13.3948059515       11.1263489349        3.7514611873
 Si        13.8337867986       12.1395847365        4.9060345086
  O        13.7133319658       10.5840472879        1.2796786482
  O         8.0772328219        8.6981708522        3.6845589674
  O        15.2744924744        8.9396600580        7.1337589012
  O         8.2954820064       12.8561681486        5.2457677148
  O        13.7047936338        7.8441722800        5.5585945868
  O        12.4475130104       12.2305871807        5.7254016698
 Si        14.0298689163       10.0527293324        2.7651058583
  O         7.7543559795       12.3782897479        0.4722200039
  O        14.3393218967       13.5456351551        4.2251925436
 Si        11.5329600510       12.2931769156        7.0405212747
 Si         9.2052433071       13.9814650405        5.9481225956
  O        13.5486794519       13.1610775374        0.3243046518
  O         4.8489145717        3.3095295309       11.3535423728
 Si         4.2071984806        4.5861299642       10.5646013489
  O         5.8835512046        3.7611115985       13.7845027889
  O         2.8614581993        5.0926923205       11.2844826526
  O         3.7591880076        3.9127546726        9.1625230389
 Si         1.3792432781        5.5142807057       10.8051123546
  O         3.7673833971        2.2702205499       13.4937227927
  O         5.1690288462        5.8980023411       10.4064661408
  O         1.3233267835        5.4202081047        9.1874799408
  O         4.2301545018        1.2548037061        8.8484425914
 Si         4.3443231133        1.9216277768       12.0387137884
  O         5.5673645060        0.8621586342       12.2237735006
  O         3.2148277820        1.1711646789       11.1978109969
 Si         4.5971957890        2.7758260797        8.3707414601
  O         1.0899618703        6.9956979305       11.3673197335
  O         6.1140594645        3.2246791596        8.6228343388
 Si         6.2567088795        0.3969843492       13.6157246137
  O         7.2807054959        1.6078114660       13.9459059716
 Si         4.5527231578        3.2478421743       14.5222803098
  O         0.3124653591        4.5410469884       11.5125509185
 Si         3.4284753265        0.2638955933        9.8781198083
 Si         7.3547191490        3.1620795776       13.4930272828
  O         5.0905513681        0.1562113388       14.7197198169
  O         0.6878360975        1.4071069908       14.8822994108
 Si         5.4510611848        7.3730250999        9.7694405682
 Si         0.9556935576        5.0593044895        7.6508915623
  O         1.9417228638       -0.0830007073        9.3883381647
  O         3.6048771846        4.4718130286       14.7343829720
 Si         7.6436071252        2.7963058799        8.5133410358
  O         7.6106433001        1.2673398152        9.0121165933
  O        14.4183536368        2.3585311714       12.7052875360
  O        14.4145563280        0.5575698353        8.6973258457
  O        13.7884365680        5.7897842541       14.1798079960
 Si        12.0664845604        6.2032223805        8.1923982881
  O        14.2567781397        2.5809495606       10.1874818075
  O         7.9164389069        3.3666867923       11.9958698051
 Si        14.1951830804        3.4349897130       11.5304930116
  O         8.6053083032        3.6662732821        9.4835361415
 Si         9.1827953283        3.4378686028       10.9856135466
  O        10.0171976070        2.0553098653       11.0351018768
 Si        11.6595432553        5.3160371678       11.2885231454
  O        10.1900639852        4.6368237147       11.3625884746
  O        12.2011312162        0.8505205560       10.1908531871
 Si        13.3617182754        1.5687707674        9.3294918572
 Si        10.6277946708        0.6522543288       10.5377140566
  O        12.7577453481        4.1620344501       11.5909815216
 Si        12.5531626182        6.8188388941       13.8912361096
  O        11.8381665902        6.4178083389       12.4746965805
  O        11.8312699408        5.9470361032        9.7872509557
 Si        14.3569560647        1.9312458032       14.2518091376
  O        12.6901263850        2.4232965468        8.1435003011
  O        13.3339850292        0.7043030326       14.4200505686
  O         8.3065966792        3.9251217381       14.4951789534
  O        13.3238055075        7.2217314060        8.0759960705
  O        14.0189920313        3.3021809644       15.0382236259
  O         9.8794971251        0.0801546466        9.2254602685
  O        14.8072955683        3.9805074521        7.6875296337
  O        12.3893638769        4.8499606265        7.3662014389
  O         7.0443099521        7.5936727401        9.4668617257
  O         4.7000683956        7.5167392364        8.3286184973
 Si         0.6341227814       14.6440797434        8.5128346536
  O         1.5696787676        8.1456106679       13.7833187352
 Si         4.2167352427       10.5305836098       14.2973169499
  O         3.6902803295       12.3822043457        8.3871187645
  O         4.9258191069        8.6236239928       10.6622179859
  O         4.2321427617       13.9372478599       10.2603755447
 Si         4.4478397758       12.3847883872        9.8068363273
  O         3.8411365028       11.2041969738       10.7284866223
  O         4.6232785861        9.9633363838       12.8549172859
 Si         3.9939536654        9.7326623865       11.3940270906
  O         2.4977961585        9.1619202172       11.5208935666
 Si         1.2799249209        8.3652909472       12.1995446254
  O         5.9816436549       11.9065778518        9.6435234189
  O         3.1311066397       11.7477500755       14.1781381674
  O         7.1296243375       14.1012156666       13.6251782187
 Si         7.3173663392       12.1711357587        8.7943651368
  O         3.5289537363        9.3323823402       15.1244068632
 Si         2.3998821188        8.1988449560       15.1597579552
  O         5.5634914283       10.9734616709       15.0362479478
  O        10.7345114267       10.9519956774        7.5088888956
 Si        13.6315518088        9.5986382336       12.9538169159
  O        11.9833626047       13.7175826860       13.4845371493
  O        15.0552303965       13.2256644535        8.9978211937
  O        13.0987158153       11.8976871232       10.4258807525
  O        10.8929237773       12.0645904504       11.7546769682
 Si        11.8429500808       11.0289837766       10.9902778643
  O        14.2489473407       10.8969040717        8.3174112418
  O         7.6092444517       13.7164400513        9.0923280873
  O        14.9757451608        9.2411265184       12.1381311635
  O        12.4483420051        9.8797619255       11.9151585833
  O        13.8700884584       10.9600541555       13.8106998322
  O        12.5278898477       12.8667793704        8.1677149529
  O        10.8973237596       10.2600207083        9.9394668332
  O         9.4753534906       13.0192153666       13.6491819000
 Si        10.6701321350       13.3682866626       12.6377560730
 Si        12.5832041760       14.3765072495       14.8156103324
 Si         8.4048176627       14.9974798832        8.5815628819
  O        13.1660325077        8.3070221581       13.7992188412
  O        10.3515531805       14.6567032270       11.7347655782
 Si        13.7602651655       12.2605285301        9.0103293865
  O         8.6295466665       11.3615382336        9.2438772591
 Si         9.8284630939       10.3911267599        8.7455368746
 Si         8.3157913690       13.5785940065       14.6015033732
 Si         7.7843678296        8.0800153848        8.0917971352
  O         9.0807865874        9.0061378096        8.3782558155
