216
15.036 15.036 15.036
Si      2.549724726200007      6.753127364099998      1.025442966500014
O       3.847246373999994      7.720799501099992      0.995453044100011
O       1.288940726299999      7.719720680199996      0.685177585999997
Si      5.397899509800011      8.041287819599994      1.298492661799999
O       4.016661277700003      6.091592396500000     12.667662823499995
O       2.762817122100004      5.618908212900009     14.931488812599998
O       3.240413861000009     11.020612418900006     13.602079129000002
O       1.177806764100001      9.760039070600007     12.289695963600007
Si      2.727778086000001     10.136306772300006     12.327887087500002
Si      3.437284924000007      7.158545669600012     11.589921300600000
O       2.374997375099997      5.936117247400005      2.419062501600004
O       3.463471634100012      8.679331327599993     12.194527464200000
O       6.210425329899993      8.985111503800010      0.288914912200012
O       6.209671769900017      6.640165627899999      1.231784759600012
O       5.362188260200003      8.911203781599998      2.648206787600001
Si      6.505001636000001      5.260713172100000      0.444015949900005
Si     14.882900338000015      7.646498411699986     14.961150374900006
O       0.815374424400005     10.945857545599996      2.491477715000011
O      14.912831725800016      5.164100841699995     11.788252265500020
Si      3.808286921500004      5.012777144600007     13.856066008800012
O       3.478111063400002     10.928771677600011      2.415239606200012
O      14.978354839700003      6.251772865499993     14.165450776300020
O       5.257545515500002      4.830731102300006     14.552106373500010
Si      2.139601294100000     11.777286381999996      2.113761631300016
Si     14.696104504400008      4.882626984800015     13.378558483699997
O       1.978238790699998      6.630628637300004     11.188930245600005
O       2.855227923300002     11.176736870200006     11.116848852600011
Si     14.648912735600014      9.784781652500003     12.609763111800000
O      14.508902897500009      8.829485983800001     13.918386994100000
O       1.983531005500014     12.045005009000008      0.535519372999999
O       6.287302724699994      9.465313011199999     11.188555158400014
O       6.825358501800000      6.940988590899992     10.957048458800006
Si     14.402490580700016     11.055544743700008      3.183136732900008
O      14.276217297000001     11.328912881800008     12.972605782900004
Si      7.336752378200008      8.322690536199996     11.683988897400006
O       7.543482635900009      8.264362468700007     13.288746258500010
O      13.744262316400013      7.717091164899993      1.061364397100008
O       7.858710788900004     10.651505879100009     14.309949129000010
Si      7.682249487200005      9.103502814000006     14.679977784600002
Si     10.117713432400006      9.185126204500001      1.660000489500012
O       8.881969895400005      8.643179340499994      0.694923367300015
Si     13.029234631900010      8.379054965899993      2.337257056900003
O      10.668487277000004     10.473527795200004      0.854351205200012
O      11.421776487399995      8.265846044899995      2.021645975300013
O       7.859580328900004      5.224370343700008     14.557922465700008
O      13.420634431800014      9.931135533500001      2.572882151000009
O      13.809603366500019      9.202394008300004     11.318680073700005
O       9.577204436300008      9.697957360100009      3.116785739900001
O      11.449166744599999      4.822184067600008     11.887416302100000
O       8.807171029300001      8.675448437500009     11.114724807000012
Si      3.078407520999998     12.402066212199999     14.454686484700009
O       2.375529450799996      0.763130379300010      2.395654269000018
O       4.642056378600018      0.677790333100008     11.649027830600012
O       2.134775666500006     15.013199867000004     11.387248513500015
O       4.645105308599995      1.937378646299999      1.863439825100009
O       0.597670834100003      3.649697726100018     13.848218683100002
O       3.158236448400007      3.589580901000001     13.372050004800000
Si      3.040778052699994      2.157588980600009      1.942604640999996
Si      1.922691467300002      2.732080232800017     14.048622699500006
O       1.593618842699999      1.215505935000012     13.533028333000006
O       2.374035642500008      2.565062680800009      0.543942628699994
Si      5.827563060999992      0.257515627300018     12.636440939300005
Si      1.630249395499996     14.753087192400006     12.876183447800010
O       5.280559897699995      0.125216332800010     14.150424322800012
O       2.614618441999996     13.694335571200011     13.607668973400004
Si      5.869785440000009      1.049951687999988      2.444651683400005
Si      5.591891003000004     13.981342576500012      0.188305113800010
O       5.898285810900006     14.696277323100002      1.602589374500006
O       4.395984446700001     12.897792428900006      0.216738833800021
O       0.274140643000007     13.926937669600001     12.671126401999999
O       6.304924791900005     13.846352214200008     12.123431768100005
O       2.758548714200014      3.359602543299998      2.968271054600003
O       2.209212106599994     13.205046602500007      2.882668592000016
O       0.027314770900007     14.700243585599988      2.949987548899999
Si      1.599956940300013     14.666776115299999      3.214069280399999
O       6.751574445500009      4.210635955800018      1.633764598300008
O       6.831542236200001     13.127523565800002     14.714038620900018
Si     10.408646272700004     12.026265470100006      1.197724877100001
O      10.203868344800000     12.195361895700012      2.791270402800011
Si     12.489275624600005     14.115289352500005      0.285203230300000
Si     11.276894610199996      0.957383131899991     13.056140632899996
O      13.177713690200006      4.519483801500001     13.767246231600009
Si      8.089684739899997     12.237330692400008     14.327976233400006
O       9.660982473300006      0.906754389700007     12.989333305199999
Si     11.719502804599998      4.082424734999999     13.275460398600000
O      12.864454854900016     14.685535693000002      1.772179507600021
O      13.095802510200004     13.202942050800003     11.655748115800002
Si     13.605738894100005     14.045178923400009      3.089308668200008
O       7.295644726200013      1.846598898100000      2.411249987300002
O      13.665276743300007     12.445903352400013      2.881317769900008
Si      8.537437410000013      1.808741689799993     12.254386415100008
Si     14.069053336700007     12.937527002300007     12.929371729200000
O       8.797296810999995      3.036605352900009      0.566803771500013
O       8.966855308800010      3.976492786100009      3.050441227500004
O      10.495690360900008      4.520509306200004     14.248455001700004
O      13.639078729900012     13.457384500600000     14.398197206500010
O       9.114452491000010     12.584661428300002      0.453413992200004
O       7.054055945200018      1.290466728600014     12.589764925800011
O      11.611714045199982     12.833441018500004      0.607702918500001
O       8.642905317800007      3.282243100800011     12.904779405300015
Si      8.949734877300006      4.032017294000009     14.318535641300004
O      11.771933376500002      0.200867774900008     14.396725670600004
Si      7.991675277099994      3.241011081200004      1.968729195299993
O      11.759453142900014      2.485007188200017     13.136164692099999
O      11.844832586800010      0.372404606399991     11.659534413599999
O       8.558203020100001     12.671506612800005     12.839407338000008
Si      7.648578396800001     13.140385508900001     11.592052494700013
Si      3.552622438400016      5.749090209300003      6.252907630200000
O       3.396114781700016      7.357883968400000      6.089947416700020
O       0.245903428500008     11.174214006800007      7.284469800800008
O       1.188003074600006      7.659586162400002      4.541893946700003
Si      2.470368194600011      8.402408620599990      5.264939465100007
O       3.465288470100001      9.145879021999999      4.279256211900003
Si      5.764238613399995      6.506281069300015      9.786017624100008
Si      6.316582427900006     10.694173271300007     10.129827543600012
O       1.764571507500002      9.600663145200015      6.092258720799994
Si      0.233452573600001     10.133062174700004      6.057124851200006
O       4.878196097100005     11.180880830700012      9.617099732500009
O       6.184456286999994      7.020968801200000      8.292587707900015
O       2.358132900999998      5.440832274899999      7.277460731100004
O      14.885348937500011      7.191769649100004      9.942933385000014
O       5.420801514599993     11.026649957500011      4.141944020000007
O       4.340599806999998      7.109321668400008     10.248484177600002
O       5.570360436400014      4.907938247500009      9.500955261000019
O       0.895310952200016      4.900379508500005      9.385088753300000
O       3.394658421499998      5.145505425199999      4.762154268500002
O      14.745216392000014     10.940504687399997      4.759521417200010
Si      6.616699314400002     11.829927649700000      4.846224280200006
Si      0.651371072700012      5.951105888399993     10.586748537100014
O       4.873294989400006      5.060446186199993      6.886757103200012
Si      3.509835890000001     11.972847909700008      9.902511852200014
O       2.455584441499995     11.877033811000004      8.690510417800013
O       6.683254581800016     11.411093970900010      6.410629020299997
Si      2.357741171699994      4.793650366700006      3.573179493000007
Si      4.434047155999999     10.023282057200008      3.365246324800001
Si     14.624975860400005      7.569158592600007      4.949033531999991
O      14.355944536300012      6.172259730699998      5.695995937800009
O      14.357119044300015      8.778240748100000      6.014165946699999
O       7.077759188500017     10.243175887500012      8.814503347300015
O       7.055466817500004      8.826514659200001      6.703284210800017
Si      7.430454233400003     10.280066445500008      7.264774297000014
O      13.030582658600013      8.516426245899996      8.679856376300009
O      10.129268981600006      6.008341790599999      4.688413809799992
Si     10.100727451100003      6.701481380200004      6.193958659600010
O      10.975171177400004      8.037663487200003      6.641714922500001
O       8.498287684900006      6.782013919399997      6.460786893800006
Si      7.517999999999999      7.518000000000000      7.518000000000000
O       8.483079104800000      7.731243518499986      8.751100197600010
O      10.826878118800003      5.683671213500001      7.188024875300010
Si     11.616047943899982      8.885389915699992      7.928329264000010
O       9.025771053800000     10.398179937200002      7.178539319699998
O      11.625928285299999     10.398954617699999      7.354053991099996
Si     10.343085306900011     11.229853099500010      6.819090392300009
O      10.673492023700003      8.827618391399996      9.242536443100004
O      10.425763438600002     11.325350883100008      5.203988205800006
Si      9.536138413599989      7.927272437100003      9.903206468200008
Si     13.536539003400003      8.041740433800008     10.174813894000025
Si      9.556216768399999     11.160032768700002      3.849306093300012
O       8.013531696800014     11.484665826400009      4.137799729399996
O      10.041473804100015      6.475149834100011     10.388728024000013
Si     11.458907576100000      5.747799827799997     10.605915835200015
O      11.783599849199998      4.748253334400004      9.371673941500010
O      12.493853887000007      6.963889252100002     10.787861724400017
O      13.636349017800013      7.648543418100010      3.666473471199998
O       7.155520044600006     11.874002158500010     10.783841362000011
Si     14.846742100800006      4.651948964100008      5.450245598300004
O       0.915472604800005      4.671004072100010      4.284890377400006
O       0.263604296700007      4.047909225100017      6.882101691000007
Si      1.422523176400007      4.341883485700012      7.972729455599999
Si      3.555450104200009      0.006535681800008     10.667906282099999
Si      1.215647890600012     12.366724104400010      7.793360053700004
O       3.870582684199999     13.516598080500003     10.232990884900008
Si      5.755666432600009      4.273559604500003      8.007715611499997
O       5.577402532200005      0.690352060900016      3.987445484600002
O       1.896038507600006     13.143540789400001      6.556515220999999
O       1.750702030000000     15.011853712399986      4.766364605700001
O       0.814558962300001      0.926380488600006      8.751523501900007
O       3.401960241799991      0.997540720600009      9.430787001700025
Si      5.542794101300012     14.676271311599990      5.201789932400017
O       2.753009908100001      0.623586818699996      7.025828179900008
O       4.082880390999998     14.066927306900009      5.461362223499998
Si      2.295392828299989      1.406904001400010      8.347984779500006
Si      2.620064381599990     14.457693803200007      5.981468823400003
O       2.291085406300015      3.004189487600007      8.201736167800011
O       5.567693099300000      2.650108802300002      7.968689123200002
O       0.261760736100006     13.379097249100004      8.608078931400019
O       5.975908126499996      0.370356519100012      6.569095999299997
O       6.455146039300000     13.427277752699997      4.775703375800002
Si      6.565020412400002      1.396547421199999      7.643241598800005
Si     14.691003853800005     14.877608614599996      8.526212284500009
O      12.091625113400010      3.432318254800000      7.041585514200009
O       8.470425082700006     14.142748495500005     10.647672401300003
O       8.787206894700013      1.688494004399997     10.639583280700002
O      13.651631571600012      3.741756738900022      4.917405869399994
O      12.475385709400006      1.489970996500007      5.391300785200002
Si     12.540019405800006     14.350696712500007     10.662921381300016
O      11.121962437999986      3.576464605700010      4.523925397599998
O      13.666367675300004      0.047965257800007      9.757768291100007
O      14.102644189000006      0.051470176400018      7.016963969800011
Si     11.135507731299999      4.331174209700015      7.968216465900004
Si      8.477705216899995      0.394623826600013      9.677443649900006
O       7.014035528900009      0.606635957099998      8.991136817699999
Si     12.832464696900010      0.052831976400007      5.990209164600000
O       8.805789191000002      3.973297574800022      5.621785433399996
O       7.923071485000003      2.021747921500007      7.036057219400001
O      11.620050673199998     14.621978779200006      6.945672044100015
Si      8.467997255900004      3.527891185800007      7.111699382399995
O      13.031817573100009     14.237415171699997      4.607842106400008
Si      9.751359037500007      4.419267307100013      4.405271968400002
Si     10.741932447200011     14.038729416299994      8.159745305700003
Si     12.314030385000009      3.069675601200002      5.477307556500005
O       7.315219130100003      4.509897121900010      7.656135310600005
O       9.572157561300003      0.063692071600009      8.529739241800005
O      11.535023825600000     13.755116692300000      9.543165716800008
O      10.199891342700015     12.642825133599992      7.574530049900010
O       9.723097967400005      3.570940455300014      8.124732361900008
