216
14.996 14.996 14.996
O      10.169962291400005     10.158085084300000      5.576939075099997
Si      9.877696981200010      8.693848104300022      6.191042851299999
O      12.609852899000012      9.922783343700013      4.721333797199996
Si     11.345150952299983     10.919692646000010      4.759195487400006
Si     13.968262653000011      9.438384122400006      5.438367945899996
O      13.613642673499994      9.079212014500015      6.982525823799993
Si     12.579470285099996      8.080737500500003      7.730916293500012
O      11.190785838699989      8.058881132000018      6.900043451100004
O      14.560113417299993      8.052664937500015      4.862171224199987
O      11.342895314100000     10.926490277400005      8.924128713600002
O      13.146335487300004      6.566460869600018      7.837007821900014
O       8.689636641000012      8.592992315300021      7.302882008800009
Si      8.726395914400005      6.732922856199998      4.048648491500008
O      11.127261445900002     11.347127598800023      3.203366736699999
O       8.307988684700009      6.097812736400009      6.902441216399976
O      12.436201105199993      8.602017396300006      9.249959028199996
Si     14.676195823999992      6.084019531600012      8.130049462800004
O       9.393638811599997      7.913034622600015      4.882663847799999
O      11.495540141699998     12.262401469300006      5.646693811500005
O       9.461261459499992      5.408087112199993      4.618030584199987
O       0.015652592199990      5.556806000900007      4.314485473999975
O       0.018590573300013     10.639172169199991      5.186303991199987
Si     11.613194114199986      9.751728336800012     10.012727104299998
Si     11.881715637100001     12.456800128700007      8.856201639500005
O       0.492741692800004      6.330544367400005      6.756973462900016
Si      0.516366084300004      6.794224853800021      5.210583570700002
O       0.255159385200006      7.097781476900021      9.236746088899995
Si      7.498000000000000      7.498000000000000      7.498000000000002
O       4.576859940799994      7.107511015600013      4.230471243799999
O       2.999199648000002     11.498145863700008      8.931305046699997
Si      1.095291161900012     11.494091048899993      6.035901071700014
O       6.814018429000011      6.957858021700003      8.854779049600010
O       5.474478260000005     10.800864043900011      8.698674221499990
O       6.190202743799997      8.522020952000016      7.132097011100010
O       4.785706026600008     10.558070169600006      6.190846807799994
O       2.508895203499996     11.732079864300017      5.264885210800000
O       1.424506984000008     10.465295272100013      7.223456475700018
Si      3.811988210600012     10.805752729699991      4.931913710299995
Si      2.381545195999987     10.092774343500006      8.442896521000000
O       3.233805659400017      9.378934330700003      4.469711507099980
O       7.132415309299997      6.650062004300000      4.331775526299985
O       2.048167672100011      7.112676718300008      4.876632677900002
Si      3.165380991000011      7.853045088000004      4.011689566499999
Si      5.722375695299994      6.047558541000011      3.840026563299990
O       3.628015471400001      9.135400087200020      8.000096502800005
Si      5.110204687999993      9.682682482700002      7.513812432200003
O       4.706457980099999     11.490032550500009      3.785454248400002
O       1.423506167300003      9.464070586399995      9.563009369399978
Si      4.484960269499997     12.121785148900008      8.912061781200002
Si      5.794571120600002      6.202386845800007      9.850354986099997
O      13.301864373599999     12.588116076599997      8.078447800400012
Si      9.226532644200008      4.886964608499997      6.137916464500009
O      14.777307508700005      4.546097569100009      8.634249932600001
Si     13.492929573399998      1.761272283599995      3.158462133399980
O      10.810941388400007     13.294493816499996      7.978450257100016
Si     10.598463260699999     13.409764860600001      6.366541319000000
Si     14.056350490100014      3.150014718799993      9.076454037999991
O      12.769851764399998      3.061778788400001      8.076939694500011
O       9.018992324999989     13.439948556599999      6.054190853400014
O      13.389936211499986      0.724597268000009      4.389191187799995
O      11.906335997200003      2.108839161399998      5.957683979799990
Si     12.167726183399999      3.536973312299986      6.644496585799992
O      10.737981210399996      4.391072362800024      6.674274516800008
O      11.181382994699996     14.758479455900002      5.728031462699994
Si     12.516850390200007      0.629612242500012      5.738755613299992
Si     14.342460474899999     13.677606826100002      7.475185259300015
O      13.545125279399995     14.905883036300002      6.764330758000008
O      13.466762904100010      4.215130423999998      5.893148347100016
O      13.846038118900005      3.282967150399995      3.544147369499993
Si     14.606322893500007      4.061662289200004      4.715545997599987
O       8.295606626000007      3.587921212999996      5.964501893700010
O       8.240457491000010      0.942572663800011      5.475747257299977
O       0.174874411900004      1.945235210399994      9.241360342700007
O       0.107390300900009     14.368784252099998      8.709907065299999
O       8.693499173000012      1.489696181600006      9.871314730000003
O       4.636899632800003      5.305389271200002      9.164874758199993
Si      7.867066077499993     14.357391153200011      5.384611118300005
Si      1.009596248900003      0.370104375300000      2.571416772399981
Si      3.424863761400001      1.657102088500009      7.498222756200010
O       3.621082994400012      2.814352065899996      3.774945201499999
O       1.042295644099994      3.283159696900010      4.948590252499985
O       6.038949398300010      2.285092280099994      5.177304552899988
O       6.820156687999997     14.765572268900009      8.698803738099995
Si      1.085375916999995      0.565481793999998      9.147808657399988
Si      7.295365937499989      1.289494804900002      9.060514690299987
O       7.668966033700005     13.764014985399998      3.910386529999998
Si      3.792115352600004      3.994411576200010      9.623202252900002
O       4.709630090700008      0.706043258600008      7.531522370999999
O       7.216614225099994      2.044571813600013      7.635273306500022
O       1.671649013700009      0.954462451500000      3.939652734199991
Si      7.430139678699994      2.235561346000000      6.040140669399992
O       6.449377350999994     14.230227385500017      6.128352533899990
O       0.408432133400009     12.891104869200010      6.516422562300005
O       3.693002137700020      2.975511887300012      8.390250696099999
O       5.413014178700009      4.609323386300005      4.478175319799987
Si      5.240103987900015      3.075811818899988      3.976747846499993
Si      2.312280123599997      2.292735097699996      4.630790390199991
O       3.064907278300021      2.040010520899998      6.008828228899982
Si      5.709717259899992     14.440114501400005      7.531263333100005
O       2.137162976500001      0.863463860399996      7.990761020500011
O       4.867867984700012     13.086745622100011      7.686197090200023
O       5.953093466499999      2.747050164499999      2.528053021599982
O       6.290435011500003      1.966361951400008     10.094877739799999
O      10.878864296800005      7.133859978000014     12.303294559100001
Si      9.692832528300016      7.910395297800020     11.554867311600004
Si     11.899673054900006      5.918231112900013     12.380283632899998
O       8.848655284899996      8.677910376300016     12.696401778300002
O       9.550303470800010      8.283237875299999      0.250635860300008
Si      8.821852946099993      9.292177496700004     14.196957434999987
O       9.471321593899994     10.767413818100005     14.242087806999997
Si      9.539586189200003      6.864425839600013      1.026685976399988
O      12.446751797800003     10.472815948199997     11.209129464500007
O      13.301161496899992      6.504694260900017     11.896841181000001
O      11.575254320199990     11.569839116600013      0.519034502400003
Si     10.555108105300013     11.955813004000019     14.302510116999995
O       8.925858261100004      6.719142820200002     10.733290506199996
O      11.018089860400002      6.241831726300004      1.131667091699998
Si     14.791727235999996      6.799187869000020     12.376627040999994
O       8.605827550200011      5.793639121100011      0.278092970499997
Si     12.370230376699986     12.012300549100017     11.751473094700009
O      10.258577237800004      9.062947856200021     10.569320291900008
Si     14.879298793800013      5.788873153000013      0.197423303300010
Si     11.826403119400005     12.203920157500004      2.000136533499988
O      11.193941597900007     12.101309168100016     12.838295834400009
O      14.783957694300002      6.880801434600002     13.991474055399989
Si      8.173513997199990      5.372387248200019     11.290012390899998
O      13.438216954099991     12.265088956000010      2.216137524499997
O      13.458698043300009      5.470116625800017      0.900148204100003
O       8.940892103000003      7.037797832000006      2.502084385999995
O      11.901845209199998      5.323102861200002     13.857852638100004
O       7.920260078899990      5.792561943800013     12.818740167699994
O      13.698135056300011     12.509564298200008     12.527688057900006
O       0.410196358300009      8.117682516000011     11.654473469399987
O       7.289993783999991      9.457121762000000     14.633979023800004
O       1.035724200300006      6.332145275400002      1.191848113900007
Si      2.472548040999995      7.056996915000001      1.083113334399983
O       2.364254095900000     10.572555071700000     14.241955142300018
Si      3.618969652100007      7.281314018300018     11.572873245200009
O       3.388318366499991      8.584009159700003     12.509502757499996
Si      3.235900027500015      9.238530895800004     13.981698024699993
O       4.720524949600017      9.688470201599998     14.403459619700000
Si      2.394743984800000     11.678609009100013      0.441153825700007
O       2.522157061100003      8.117858250099996     14.880670385300006
Si      5.909214749200004      9.313549865099999      0.414361099600004
Si      5.279391755700014      6.257375164000003      0.876061748800001
O       3.686755521000005      6.018789651300022      0.804985648799998
O       5.647057619600007      7.813182336100015      0.886775585299986
O       3.228076051199995      5.870639851199993     12.295690621200004
O       5.879234665100002     10.226100381500011      1.736811999399986
O       0.954075069300012     11.651530208900020      1.203309108000000
O       3.656087738800003     11.504937816399998      1.434227118600007
Si      5.075331552100010     11.535608354200006      2.224333299699993
O       5.108381874499995      7.200817338600009     10.942953654499995
O       2.594257221800004      7.358758126100019     10.340854066500009
O       0.653236553899996      5.553709956199995     11.828864574400013
O       6.030700603700009      5.553475130100004     14.643766960899990
O       6.750005056599994      5.160042025100014     10.593726276300005
O       5.812595245900010      5.709490017700006      2.274333621099988
Si      1.135756115500015      8.021032312000006     10.194098249899980
O       2.760181260899999      7.823431941500016      2.457217061799985
Si     11.936338307800000      5.110285998999990      0.447330681000007
Si     14.801038707200002     12.776126156400005      1.492958428700004
O      12.035892398500012      1.800508108300001      2.504154419000010
O      12.052213439400001     12.900071837900001     10.416497512699999
O      11.505216439700014      4.671015628800015     11.449984232099991
O       8.847199316500001      3.915340028599999     11.124483008900006
O      14.311438145600020     13.365994474300013      0.051137306000011
O      10.013291414099998     13.445389369700001     14.635930035400001
O      10.764868995800015      2.193524741999992     11.196620865399989
O      12.683554321499999      2.648025848699992     12.847800286200007
Si      9.976121028600001     14.348159542300008      0.991432921000009
O      11.351196891900001      3.606988905299998      0.737083614900013
O      10.335004887500009      0.940516992500018      0.738960589200013
Si     11.565593526399988      2.003162906800011      0.983460189799996
O      12.833025810000013      1.563915695299999      0.113903213600007
Si     13.530995468699997      1.565571054500005     13.675249819000021
O      13.449937832700007      0.040447156300002     13.144098141400002
Si      9.149365864799991      2.316019661599996     11.211411830800001
Si     14.298127770099990     13.695380882600011     13.456512334600008
O       8.447628707500012      1.729681438900009     12.595220947800000
Si     12.043052097900004      3.144083778900022     11.460063150899993
O      11.105901208100004     13.677698712500012      1.975504684799993
O       8.461034297800001     14.145721279999991      1.516315043299996
O       0.097134296399998      1.960556048599998     13.765547346899991
O      13.310734743499996      3.127021701100012     10.491325941699985
O      14.703741372600021      1.260856624200009      2.218309403099993
Si      7.548273778000000      5.195041579200002     14.246228317900007
O       7.686367290700008      3.620170467900005     14.156441688200003
Si      7.128588606600001     13.938882097100004      2.408920112999980
O       6.209870960799995      0.248687864100005      2.290745068799983
O       4.390060725399995      3.298330272899987     10.960112579800006
Si      2.346371624300012     14.067199415699994     13.526320816399998
O       4.389836568600002     13.217132155000007     10.109888220500004
O       2.353413881800014      4.460052605700010     10.192726933899991
O       6.912553685199998      1.491486002500010      0.099053897400000
O       6.123248568300008     12.742225297600013      1.978643621199989
O       4.445217173000004      1.505595947700015      0.802044752299993
O       0.492671017899995     13.834051854000011      2.524714164599991
O       5.887547269400002      2.114807840599998     12.754809168299998
Si      3.481801309800003     14.330352075700008     10.885432875299989
O       3.224124381500015     13.595120566300002     12.284881151300004
Si      7.243940206099994      2.175137322400004     13.641448862099999
Si      5.921213264600018      1.548736122400008      1.405752428199992
O       2.596892531899994     13.128294950200004     14.789679355099997
O       2.049218750500007     14.931715195700004     10.329516015400005
O       0.817875609799994     13.990825686000004     13.061518367700005
O       2.830991471500005      0.553158187099997     13.934822331100008
O       0.334875603199996      4.401176224600011     14.549664378999996
Si      5.232641954900007      1.975933169300013     11.284720278000002
O       2.130586666100000      0.476144973099998      1.439882369699993
Si      2.939048740099991      1.322995708000004      0.353422136599995
Si      1.158380100200011      3.148684528900004     14.022680450399990
O       1.975567586699994      3.523695954199998     12.681372635799987
O       4.393967927100014      0.631748641500011     11.125981938600003
O       2.211394695100005      2.742965311400011      0.172277513200000
Si      2.084811944499993      4.832146228300014     11.747655266000008
