216
14.83 14.83 14.83
 Si         1.6290564497        3.8569633631        3.8404213141
  O         0.7498805931        5.2028605394        3.6243289558
  O         3.1861832851        4.2204294051        4.1223697311
 Si         4.4999267081        3.3636418626        3.7754097133
 Si         6.6889214464        2.4418092789        5.8353954399
  O         5.5967564505        3.2201095435        4.9388300458
  O         3.9524833987        1.9086475517        3.2971057032
  O         5.1935112848        4.1081844860        2.5351373318
 Si         1.0941027352        6.6731637004        3.0202300561
 Si         4.3764111912        1.0060192047        2.0244278949
 Si         1.6397910733        1.8627074105        6.2406951253
  O         1.2348934820        2.9671222895        5.1225138262
 Si         5.6116570132        3.5328536473        1.0926769941
  O         0.6735047708        0.4947838451        2.0624843912
  O         1.4042884303        3.0353068402        2.4711294023
  O         1.0552149885        0.4739916916        5.6821278504
  O         5.1898028684        1.9676405784        1.0031458092
 Si         0.4442301434        2.0279938981        1.6558864637
  O         5.8393270273        1.7309699917        7.0113879344
  O         1.6598726224        6.2723230734        6.5753184079
  O         6.1735656671        6.7781506520        6.8974651555
  O         2.1527487630        6.5930934884        1.8140992847
  O         3.2122641595        1.7313616668        6.6118506848
  O         7.1770622354        3.8696213856        0.9884221774
  O         4.2060948881        6.7569918307        0.2480519632
  O         1.8054747264        7.4929664346        4.1873750839
  O         3.1349963656        0.2356987194        1.3331914435
  O         3.7948310434        7.2437027761        5.8542353395
  O         0.8252285158        2.2325959323        7.5776476350
  O         0.8355869384        2.2126036643        0.0888964542
  O         4.7736239283        4.2108029760       -0.0838201950
  O         7.4947345201        1.3197540092        5.0199298206
  O         7.8253612917        3.4602467787        6.3453671078
  O        13.7465753898        2.2423388629        2.1450576126
 Si        12.3676557467        1.8500851209        2.8983361974
  O        11.2108775749        2.6172723122        2.0688229604
 Si        11.0493143016        4.1473830638        1.6168873326
  O        10.7964097949        5.0234843131        2.9632961605
  O        12.2740902022        2.3070663351        4.4518149574
 Si        12.3311211114        1.7931329417        5.9875016173
 Si        10.6617438903        6.6317527759        3.0576713175
  O        11.8669507102        6.6733074400        5.8483558587
  O         9.3921196695        5.6092720325        6.1784052619
  O        12.4516402951        4.6311862848        0.9086541053
  O        13.1803332792        2.8841914422        6.8256232631
  O        13.1835313518        0.4094769991        5.9302410601
  O        10.8739885044        1.6357879937        6.7438597080
 Si        10.2620811204        6.9081113680        5.8836357612
  O         9.8035574582        4.2844293949        0.5851190391
  O        12.1065100512        0.2421557840        2.8712176432
  O         9.8907799404        7.2417035188        4.3423972218
  O         9.7222856560        0.5770522311        3.7139905330
  O        12.1208741146        7.2712288145        2.9461431163
  O        14.1539031055        7.0824060123        6.9213682420
  O         9.8706555947        7.0061827193        1.7245031750
 Si         8.7655361541        4.5026442748        7.1402178114
 Si         8.4203195814        0.1155552098        4.5497019652
  O         5.3497345309       14.7439590322        2.6367423152
 Si         2.2364783197        7.5066468599        5.7175856772
  O         0.5672633881       11.1263579356        7.0026809811
 Si         5.3184203968        7.6952433742        5.8788360571
  O         5.8500814198        7.5868595025        4.3549571458
 Si         3.2286104900        7.6203243189        1.1742671331
  O         4.1860864196        8.3139545530        2.3030220787
  O         6.7611565807        7.9003871447        1.8856886021
 Si         1.8131444920       14.2334402041        1.7608449830
  O         1.9730625742       13.3481018916        3.1220258057
  O         1.7307071613        8.9688066926        6.1822814873
 Si         1.7324804767       10.5780259746        6.0484397895
 Si         5.6697859856        8.4099459024        2.9765929568
  O         1.4071991789       11.2033731822        4.5687844594
  O         6.1777210937       12.3558883995        2.1424651651
  O         6.0271742173        9.9698359603        3.2923106888
 Si         6.6297875342       13.8837256541        2.2784247390
 Si         0.7517275260       12.4490043810        3.7398096673
  O         5.2765477051        9.2302701346        6.3439407571
  O         3.2205656097       10.9636691673        6.5841594865
  O         1.2393311432       13.2655303686        0.5833656339
 Si         6.9110494134       10.9576567668        2.3597836251
  O         0.8065508398       10.6489832581        0.5839640280
  O         6.9187498215       10.2477420677        0.8948173613
  O         2.3986767066        8.6513244885        0.2513790180
 Si         7.2595828962        8.7063410046        0.5637091247
  O         7.2566932861       14.4191053698        0.8988551862
 Si         4.5026816151       10.2701692334        7.2989078940
 Si         0.1394238486       12.0813445155        0.8332499538
  O        10.6140184380       12.8512243098        7.4064004441
  O         7.6020912813       13.9948015857        3.5464834250
 Si        10.1459381304        7.9109841118        0.4388979314
 Si        11.5410272768       10.1656185518        1.8222304078
 Si        14.5632633177       14.3950332124        5.8885218568
  O        14.6693224072       13.6707448844        7.3201719915
 Si         9.8044087392       11.4553297981        3.7522677044
  O         8.8169123718        8.7436911259        0.2441773319
  O         7.9956656207       12.1847353317        7.0751050497
  O        14.6610096344       12.1020849942        2.4362606284
  O        13.0218817183        9.7119175126        2.3820954738
  O        14.6507955169        7.5082666936        2.4805034596
  O        13.6014903020        8.4078374253        4.6887975772
  O        11.0373006650       11.5404437234        1.0659162287
 Si        10.3188163387       12.8809845840        0.4361421188
  O         8.9910881731       14.0823121791        5.7697792630
  O        10.7019448607       10.2190661950        3.2121695556
 Si        13.3611210485        8.2727196826        3.0918502500
  O        14.5951594245       13.2796602627        4.7194336683
  O        10.6261563037       12.8562287376        3.5493592451
 Si        10.6619649536       14.3532309654        2.9293122487
 Si        13.0409569410        7.7786262923        6.0547303701
  O        10.0525656762       14.0784564344        1.4784235487
  O         8.3935007076       11.2850457434        2.9613990805
  O        11.2893540636        8.9905024666        0.7432526813
  O        12.4410855484        8.9855983192        6.9212597082
  O         9.6392985250       11.4513918133        5.3470035724
  O        10.0400566734        8.0646408257        7.0111221999
 Si         9.3489247424       12.6492524338        6.4040658332
 Si         2.7046251007        4.5780348592       11.8166492374
  O         4.0328885300        4.1190814204       10.9607376354
  O         3.1254292704        5.4358811279       13.1064359816
 Si         5.0701551761        4.0110525972        9.6904583168
  O         5.6114181218        5.9281559849       13.0110979246
  O         1.8033821851        5.6067005485       10.9540193602
  O         1.8167466048        3.3622504528       12.4486584897
 Si         4.4136410015        5.5895721180       14.0143703419
  O         4.2827488760        3.0514016760        8.6447507135
  O         5.3708891591        5.4989048788        9.0780090602
  O         6.5690448280        3.3807048653        9.8946925085
 Si         6.6286975879        6.2488675771        8.3602996682
 Si         0.6252331650        2.7682916151       13.3983333436
  O         0.8369958965        6.9205921824        8.9856304451
 Si         7.0120002063        6.6571723684       13.2466515683
  O         6.5885615648        0.8423237578        9.7202987586
  O         4.3016265232        0.3942372294        8.7301357767
 Si         1.7290506813        7.0920216855       10.3073126917
 Si         0.4454731066        6.2062370190        7.6140785893
 Si         4.3843158043        1.7095853204        7.7476710949
  O         7.5705209203        7.0273208923       11.7843397896
  O         7.2526977722        7.4791551057        9.2058754486
  O         0.0948119648        1.4992034057       12.5270176205
  O        14.8254801988        4.6981941288        7.8279839117
 Si         7.5410312899        2.0687930379        9.9247256508
  O        14.4986640394        4.0410986402       13.7639584141
  O         7.8306343876        5.1953058475        8.2338786514
  O         7.9924068833        5.6826975303       14.0867902171
  O         7.9932433223        1.8929992954       11.4393141374
  O        13.8535253385        2.7944945679        9.3141660193
  O        12.6935579330        5.8259897042       13.4260855907
  O        12.1076170612        3.2217736027       13.6985388636
  O        11.3623536803        1.8087304217        9.2239083656
  O        10.5394421498        4.8508588585       12.3710853495
  O         8.7599574021        1.9008660099        8.8249265994
  O        13.1805776737        0.7472617564       10.7903288708
 Si         8.7702698525        1.8163139866       12.8153056419
 Si        11.2244890701        3.3668899477       12.3749975394
  O        10.2937281579        2.0739295147       12.3707715065
  O        12.2058321297        3.2896600828       11.1229755068
 Si        12.6571809084        2.1207164925       10.1216755707
 Si        11.2482747136        6.2479608118       12.8365207973
 Si        10.2419484693        2.2280541938        8.1566877720
  O         8.2487656528        3.0556782409       13.6824906071
 Si        13.0130709607        4.4509636919       14.2220626488
  O         8.6354697769        0.4181460007       13.5948234254
 Si        14.3775346093        3.1710430073        7.8605481119
 Si        14.2015174579        0.1880408860       11.9170979581
  O        10.0449992116        3.7966187095        7.8301389192
 Si         8.3324343031        4.2425226065       14.7571300643
  O        10.4626642155        7.0057127031       14.0035018934
  O        11.3705602662        7.2497643456       11.6119844401
  O         3.2435855553        7.5932497160       10.0703283707
  O         6.6630236039        8.0020322650       14.0820067838
 Si         5.5566365683       14.5107833241        9.5154761296
  O         1.0784188450        8.3201168723       11.1172098733
  O         5.5879854184        8.5713706294       10.7184603708
  O         5.3458127689       13.7625076117       10.9402681262
  O         4.4987828565       12.1068918121       12.7041248613
  O         2.4658451667       10.6989271185       13.4294417287
 Si         3.2405639041       11.2787076129       12.1561857275
  O         3.6188864383       10.0485190034       11.2004409612
 Si         4.1257545706        8.9430177525       10.1595744812
  O         2.3096730300       12.2736724127       11.2882611607
 Si         5.8324786693       12.8238136881       12.1786572117
  O         4.0500588498        9.5471017575        8.6649302801
 Si         0.7570140420       12.3053760345       10.8780192944
  O         6.3398867656       13.5168464546        8.5625396630
 Si         1.5117022557        9.7424520945       14.3045765999
 Si         6.8963096469       12.0828345920        8.1943553970
  O         0.3302921767        9.1464909575       13.3577263932
  O         6.5846075285       13.6653652698       13.3309915774
  O         6.8300186732       11.6243829649       11.7828746947
 Si         7.1298893552        8.1260596296       10.6737517691
  O         0.2435247739       13.7649419142       11.3632866295
  O         0.4937199901       12.1958268871        9.3121722758
  O         0.0982756977       10.9280839592       11.4731271572
  O         5.5931052250       11.3579262310        7.6625818938
 Si         0.0080137819        9.3223037517       11.7777682228
  O        13.0219958579       11.7760811301        7.9831360656
  O         8.0756713692        9.4013586067       10.9591753925
 Si        12.6954427645       12.9742587987       13.5763252247
  O         7.6656343758       11.3696517120        9.3985775419
  O         8.8873186630       12.7640719554       14.5024930228
 Si        11.8863182382        8.5465178260       10.8372098999
 Si         8.0303825024       11.0179142243       10.9186701693
  O        12.1086627223       12.0294857496       12.3720485923
  O        10.7032461450       10.4144035783        8.1540368016
  O        11.1240201224        9.8831481366       11.2820791508
  O        11.3763798313       12.2013135916        9.8984397652
 Si        11.4575848788       11.8356866790        8.3368764437
  O        13.6864120131       12.2624107828       14.6660791374
  O        13.4040779175       14.3228382177       13.1082274732
 Si         7.8424247327       14.0113825713       14.2794826434
  O        11.5478435274        8.2392491899        9.2852536887
 Si        11.1457538790        8.9065217824        7.8671715300
  O         9.4021433955       11.6983595276       11.4602987043
  O        11.3687027406       13.5083767059       14.2607073871
  O        13.4281375737        8.8097471656       11.2086664920
 Si        11.0118782222       11.4841351924       11.2971687940
 Si        14.5841512603       12.1772524707        7.9008937237
