216
14.968 14.968 14.968
 Si         4.4204620821        2.6370430888        4.7403818079
  O         3.7340398021        3.9040073690        5.4431603353
  O         3.2648443402        1.5106263843        4.7507775171
 Si         2.3803133898        4.6686825008        5.0110387580
  O         2.5729627348        6.2244008586        5.3727187955
  O         4.7776870404        2.9015746475        3.1858318752
 Si         6.2300042549        2.8555214474        2.4711690553
  O         2.1709583913        4.5128645406        3.4254893766
  O         1.1028006058        4.0553369978        5.7796512517
 Si         1.1850107760        4.5048774189        2.1514906167
  O         5.8434490971        2.2588225430        5.4522458753
  O         6.1467982904        5.6140889020        4.8813614394
  O         6.0784489165        2.2600584088        1.0108134989
  O         0.7822019706        6.0507423802        1.8684906528
 Si         6.3345677145        6.1933302903        6.3776133673
  O         1.9570168269        3.7418612895        0.9340679099
  O         6.1409446593        6.7043324398        2.4029750430
  O         6.9350749036        4.3014497477        2.6632468238
  O         7.1616698590        1.7876591486        3.2230487692
 Si         6.8661095902        5.7287599100        3.4307025935
 Si         7.1650930147        1.5236430479        4.8089382590
 Si         0.2845890764        3.4418700890        7.0242937276
  O         1.0127079048        6.9247847228        7.3330709882
  O         2.4908409505        0.0053367230        6.6887560649
  O         5.3671480123        5.3724767068        7.3237418648
 Si         1.7403472954        7.4249233565        6.0245774465
  O        15.0331261929        1.0273823273        2.9614033169
  O        14.8101082522        3.6488618564        2.5018732112
  O        14.3425516669        1.9523083069        0.6168705814
  O        10.7585241639        2.7284231292        0.6991653958
  O        12.3367065062        1.0146914710        6.9478996222
  O        13.7674470371        3.1156512170        6.4669365699
  O         8.2768863920        6.3908903736        3.8263877591
  O         8.5748623080        2.1890699582        5.3067709277
  O         9.8185902963        4.4356966492        4.1490944693
 Si         9.9039634340        2.8892695397        4.6146679891
  O        12.6161029987        2.0298342442        2.4944748065
 Si        14.1977626162        2.1815789033        2.1905560567
  O        10.1511211332        2.0973601108        3.2552170459
 Si        11.0829556176        1.8358968772        1.9839935529
  O        10.0627774468        6.2379941731        5.9932791657
 Si         9.7232943322        6.0160477684        4.4340984364
  O        11.1562224442        2.8188402869        5.6182073683
 Si        12.2710164345        2.6059940229        6.7662073450
  O        10.6740456323        0.3746903908        1.4831706137
  O         7.7938390827        6.0136355887        7.0165736826
  O        10.6819341213        7.0938807511        3.7337103537
 Si         9.3339882756        6.1930250356        7.4194849351
  O         6.8671690325       14.9008172496        4.9952241205
 Si         2.8921564803       14.9493763975        5.0862558587
  O         5.2933025918       12.5717148458        7.0641849981
  O         5.9948698455        7.7673973450        6.4834258603
 Si         0.7132492767        7.6188918828        1.4583392774
  O         1.6276594563       14.3545564860        4.2142477165
 Si         6.0927031581        7.8838399425        1.3201573681
  O         0.5477253470        7.9376471568        5.0699402713
  O         2.1045001672        7.9585380198        0.6974604343
  O         2.7201749394       13.0921808505        0.8568418337
 Si         3.6684785771       11.8251562039        0.5942721049
  O         4.2878918436       14.1804138877        4.6714628672
  O         4.6129811382        8.4953079901        1.4888805227
  O         6.2305224890       10.2952420174        6.3117038708
  O         2.9552291214       10.4540412659        1.0924068212
 Si         2.6045989413       10.2301559769        5.9204140649
  O         1.5450598786       10.2969590876        4.6942822974
  O         6.0823269946       12.3105959461        4.6869188152
  O         6.3045890132       13.7232254408        2.7194426408
 Si         5.8513046538       13.8471357234        4.2741531373
 Si         5.3518779311       11.5169106609        5.8562280632
  O         3.9413759864       10.9238555910        5.3746420147
  O         5.0959743532       11.9156466286        1.3327717817
  O         2.7384715579        8.6607028050        6.3056287807
 Si         6.5711487628       12.4597560021        1.7264496266
 Si         3.3540258834        8.9617950920        0.6006821430
 Si         1.2220439345       13.5453956382        0.4625257166
 Si         0.4140465022        9.2516452886        4.1527131194
  O         0.4003128261       13.5554332450        1.8807695067
  O         0.6208103310        8.7208488451        2.6484366774
 Si         6.6878996566        9.0444498800        7.1508833523
 Si         0.2703713562       14.4146852675        3.2745435871
  O         2.2595220523       10.9960004440        7.3101741051
  O         7.3179612210        8.8807980088        1.6260469144
  O         7.2533894382       13.0169932612        0.3919629393
  O        10.2938525008        7.4985296378        0.3057549148
 Si        12.6521800602       10.4212916480        5.1485193072
 Si        10.9124039461        8.9275350330        0.7149474071
 Si        12.3121689820       13.3559605137        4.0281579088
  O        11.4691034695        9.3624281736        4.8283076030
 Si         8.4646859341        9.9345503613        2.0272958278
  O        13.8666286286       13.8756509480        3.9765247933
  O        11.4592983036       14.2640431869        5.1328076329
  O        13.9681201030        9.9637187593        4.3539587601
  O        12.9466798159       10.5126727601        6.7399147115
  O        11.5545452869        8.8990159466        2.1920463833
  O         9.9064232546       13.0903161931        0.3146155477
  O         9.6450382790        9.9724278313        0.8571100542
  O        11.6907532849       13.2651219887        2.4994523668
  O        12.2379558467       11.8614438739        4.5958205098
 Si        10.7273732000        8.7003592023        3.5660056652
  O         8.2813037821        9.0348257659        6.9305027437
 Si        11.1283107423       13.8706680252        1.0784617715
  O         7.6383622305       11.3197401141        2.2538430963
  O        14.3580899384        7.7984182163        0.5538631829
  O         9.2744371824        9.4253724698        3.3480216630
 Si        11.4606208534       14.6528377139        6.7305873536
  O         4.7569791098        3.5861214377        9.0445703173
 Si         5.0362950367        5.1391379083        8.8528609490
  O         4.9440372301        4.9124857144       11.9222466557
  O         6.2461392038        5.6147029869        9.8391613374
  O         5.6016561423        1.4115064769       10.0636325644
 Si         4.2694975424        2.2667566892        9.7952110923
  O         3.5996913881        2.7259386858       11.2204087490
  O         2.4889588840        5.1297578868       11.3769787847
 Si         3.5530255504        4.1410105290       12.0326515015
  O         3.1218110154        4.0546998148       13.5627866190
 Si         6.3670369524        5.4552218166       11.4511361851
 Si         2.6710914024        6.3217243745       10.3339721548
  O         3.6628578310        5.9284574448        9.1325247928
  O         1.1738380865        6.4829521545        9.8227963459
  O         6.6286377590        6.8851711723       12.1536571042
  O         3.2764739954        1.4868673959        8.8065726922
  O         5.9818654120        3.1113432189       13.6361491608
  O         1.2402959186        2.3063054801       13.8059925267
 Si         2.0146162050        0.8761162383        8.0062450048
  O         5.9402382302        0.5551481379       13.8775885390
 Si         2.5051192729        2.9900397092       14.5744835046
 Si         5.3768883344        1.9282487331       14.5761798625
 Si         0.1811738649        1.2420465162       14.4070950373
  O         7.4821742913        4.3630314106       11.9229193675
  O         1.0181187946        2.0957458136        7.5651187951
 Si         6.4643785128        0.0659091921        9.9447639476
 Si         0.2976961927        6.1599083527        8.5275374225
 Si         7.1866894395        0.2579050786       12.8343172163
 Si         7.2880225139        7.4372769433       13.5225310680
  O         3.7635890664        1.9566026205       14.8038988754
  O         0.1634113234        4.5857473377        8.1809718894
  O         6.2368633402        7.4107022399       14.7439873486
 Si         7.4806365741        3.1716978866       13.0170293274
  O         7.7916491327        1.7054866130       12.3959297247
  O         9.7357363891        4.9156340534        8.2684577381
 Si        10.1861861318        3.4853468248       14.3902009301
 Si        10.0021678714        6.3974650233       14.1506424965
  O         8.5867667190        3.3564537557       14.1830407585
  O         9.4257049838        2.3204374830        8.5651420983
 Si        10.3727353661        3.5920646091        8.8635524692
  O        12.2327918230        1.9532357134       11.0081362241
  O        10.5848238611        3.8171857369       10.4424211795
 Si        11.6205434743        3.3727818340       11.5965163651
 Si        12.2288524382        6.3000312794       12.2086397157
  O        12.5305293060        4.7200562002       11.8663788222
  O        10.9115013420        3.0356654485       13.0126445717
  O        10.7109740845        6.5533508185       12.7087189611
 Si         9.3532124154        0.7243760789        8.8267283797
  O         8.4308103664        6.3822933952       13.8891642478
  O        13.9748087509        0.6242273510       13.4836016627
  O        13.1647846560        6.8622109913       13.4146929160
  O        13.8729855152        6.8615841942        8.8809986628
 Si        11.5886340301        0.4303281664       10.9378845622
  O        10.1342629512        0.4752269649       10.2324837684
  O        10.5226289788        5.0096671295       14.7384357644
  O        11.7826342347        3.3429760936        8.1137372960
  O        12.3955622326        7.2444159050       10.9224829111
  O         7.8112466811        0.2967613252        9.0610942070
  O         1.1721929413       15.0739376584       14.9631865443
  O         1.3217379010       14.8895442241        9.1138416369
  O         6.7193427512       14.5092907109       11.4590444009
  O         3.2741174812        7.6583622921       10.9917329541
  O         3.8885351159        9.0801103039       14.0428177992
  O         0.7017352602       12.7095242957       14.1107835858
  O         3.8119008105       11.6932374668       13.9479047680
  O         5.5308075590       13.9583412751        9.2066422103
  O         1.7964384372       12.3161073841        9.5145931617
  O         6.0057754468       10.5946058648       13.4889240565
  O         1.6346761745        9.3427472507       12.0772283002
 Si         2.8825243685        9.2110166332       11.0781375504
 Si         4.4365981164       10.3780613318       13.2483028914
  O         2.4970734228        9.7563684877        9.6068350812
 Si         2.6863534913       11.1761316076        8.8581131515
  O         4.0630769235       10.1328990275       11.7010617345
  O         4.2159058359       11.6099990689        9.1225098300
 Si         5.4876992816       12.4661166764        8.6522280312
 Si         0.8132804857       13.5352407001        9.8243138991
  O         6.3961998962        9.2637310347        8.7514463329
  O         6.8633279828       11.7518063487        9.1218236027
  O         0.7058680993       13.6446744314       11.4563914996
 Si         7.3006220207       10.2913960026        9.6811834116
 Si         0.0292103626       12.6885686391       12.6038713292
  O         7.2508653844       10.3699770021       11.2820994461
 Si         7.4773178353       10.4010132330       12.8809723945
  O        12.3220826905       14.0397254658       14.9521982365
  O        10.0495554483       14.8992484833        7.5574819847
  O         9.7482586310        7.5078676152        8.2742948773
  O        11.6038540156       14.8974385083       12.4819066831
  O        14.3924504637       13.1648299909        9.1139929187
  O        14.4279985269        8.8869651279       10.6884261078
 Si         9.4202649801        9.0844301995        8.0646046409
  O        14.8985779249       11.2414400368       11.9210445043
  O         8.3350314408       14.2815843471       13.4769887924
 Si        13.3360248716        8.0113433492        9.8747006250
 Si        15.0356207606        9.6462511939       11.9734454986
  O        12.1586915388        9.1125552152       14.6587734600
  O         8.4218771751       11.5956315036       13.4785666641
 Si        13.4788259257        8.2249683358       14.2505112165
  O        12.3068223983       11.6123715114        9.1234256294
  O         8.8093797384        9.8207743372        9.3668541453
 Si         8.5321911779       12.9639757612       14.3963248522
 Si        12.8066271258       14.4485368658       13.4631786244
  O        12.5442410115        9.0454024834        8.9614204422
  O        12.2586857515       13.4905803466        7.4938425593
  O        12.3314649854       14.2676511246       10.0519166693
  O        13.4757937224       13.1612398353       12.7901815778
  O        10.6172317628       10.0511931579        7.6405367306
 Si        12.1272070914       10.3422194266        8.1280410105
  O         7.9512931710        8.9077921219       13.3258573466
  O        14.3413653778        9.1952276765       13.3304086846
 Si        12.8035560929       13.1520050491        8.9765304673
