216
14.794 14.794 14.794
  O         2.2297093656        3.2920437086        4.4432212406
 Si         5.8472080451        5.5845967450        4.3473979665
 Si         3.7780663580        3.4759193599        3.9940248650
 Si         1.1982958312        3.7608927979        5.6095827070
  O         4.3677976074        4.9257844900        4.3532232259
  O         3.7709142204        3.3699549106        2.3900688736
 Si         4.1051988579        2.6001639089        1.0348715285
  O         4.8422405634        2.4617862466        4.6891811812
 Si         5.6414271726        1.7217674913        5.8884038611
  O         6.5862749541        5.4250203285        5.7647018965
  O         3.4430159255        1.1487090710        1.0712864486
  O         1.0905399396        0.9939945191        2.3001829352
 Si         0.5560332167        0.8764570408        6.4881689410
  O         0.5891918326        2.4878378579        6.3903785478
  O         5.6980735246        2.4648949190        0.9731053002
  O         2.1280619253        4.5130828408        6.6606768408
  O         4.7595782993        0.4183556878        6.2460424716
  O         6.8834010391        4.8511598260        3.2867761847
 Si         0.4894561064        7.0692489574        1.5544230878
  O         7.1409276223        1.3100223182        5.4363774161
  O         5.4254180011        7.1391913905        4.1995994911
  O         1.9738822319        7.0915088496        6.6508918513
  O         1.6382965856        6.4979582190        0.5756065538
 Si         2.3779197536        0.2017247865        1.7784691399
 Si         7.3505212785        6.2260402368        6.9268824571
  O         2.0508603912        0.2539633907        6.4015423930
  O         5.8158252615        2.6165314397        7.2480219046
  O        14.8012904742        4.7573498079        5.1060547006
  O        14.7967108071        5.8290028588        2.4688553053
  O         7.7890307447        0.9624481214        0.8064884999
  O        14.5526696591        0.4102566336        5.1847086489
  O        14.4725764934        3.1211989985        2.3150726152
 Si        14.4175845142        1.5579375459        1.9632445946
  O        13.1451772279        4.7676050050        0.8191338069
  O        12.5580182332        4.0979813724        6.1826592147
 Si        13.7894060507        4.5709180783        2.2706784624
  O         8.7027610780        3.1204215329        1.9772237320
 Si        13.1844794302        5.0101445127        5.0149615776
 Si         8.3787287821        4.1484825874        3.2158831510
 Si         8.5912712940        1.6620592793        4.8144675222
  O        12.7513386965        4.5946552411        3.5126048199
  O         8.6319597145        3.2652538163        4.5449800247
  O         9.4498913832        5.3531967962        3.1227200355
  O         9.8594574943        1.2384205007        5.7442724995
  O        12.5778263197        6.5006601607        5.1782450198
  O         8.6450310668        0.9173340962        3.3666429281
 Si         8.8997276835        1.4912676164        1.8668744928
  O        10.3783652728        0.9656401934        1.3994412316
  O        13.3967027275        0.6701317710        2.8664624717
  O        14.0497120936        1.4706358895        0.3871901958
 Si         9.2131235554        6.9016835719        2.7151948288
  O         8.4822506887        6.9775874827        1.3161365515
  O        11.0153894345        6.5926862995        7.2191348030
 Si        10.9599531628        0.0886678157        6.1221528880
 Si        11.5446725993        7.4486852978        5.9747825249
  O         6.0644021728        7.4013212426        0.4923759931
  O         4.0228479285        7.8884028801        2.2039904452
 Si         3.4645506708       14.2459692551        6.2741503740
  O         2.8308187670        8.2064590176        4.5877231552
 Si         1.5991719197        8.2564278373        5.6400435987
 Si         4.2302468044        8.1516510464        3.7917749563
  O         3.1237687251       14.2466015229        2.9584608533
  O         5.4942745681        9.8711172916        1.4931906373
  O         3.6182040926       13.1510966195        5.1085852744
  O         4.1843087164       11.8390002054        2.8061424823
 Si         5.3193888533       10.6860121993        2.9188527737
  O         4.8479816631        9.6177454664        4.0229515397
 Si         3.1642681447       12.7905047608        3.6227216536
  O         1.6818854245       12.1696380237        3.6938012140
  O         6.6561711310       11.3411971988        3.5304115062
 Si         4.8846173734        8.4346787107        0.9361882348
  O         1.3919949953        9.6155023629        6.4962791419
  O         1.8919451740       13.8904885963        0.7379018616
  O         0.7306479666        8.3817418137        2.4552491786
  O         0.3292061967       11.9142592320        5.9953216783
  O         0.1707998846        8.1307175098        4.8642043620
 Si         0.2389948749       11.9368278068        4.3688282389
 Si         0.4540230784       10.7734647100        7.1487990644
  O         3.5404131581       13.3245797766        7.5558979591
  O        12.3245585493        8.7778953191        6.4168508097
  O        12.4830462692       14.3042523508        0.2429099591
  O         7.8954220125       12.3187403956        5.7421837537
 Si        10.9595265783       14.3354487099        0.8165229019
  O        11.7576418329        8.7023251503        0.7158799871
  O        14.1205642143        7.5603080618        0.5700808543
 Si        14.4524095484        8.9421547007        3.5576752177
 Si         9.9982958966       11.7641088861        2.0590048958
  O        12.0016173195       14.6329280458        4.9187245058
  O         7.8909003948        7.6603430023        6.4005487834
  O        13.9632329585       13.0649159110        3.9356049910
  O         9.1316030312       11.6811009239        0.6520864643
 Si         8.0000771284       11.3613214483        4.4241972167
 Si         8.6591897844        8.3242327736        5.1470508760
  O         9.1063882682       11.9162358914        3.3873532104
  O        10.0969650583       13.5602436259        6.3311572623
  O        12.9055647612        8.7157255663        3.1198854182
  O        10.8669783735       10.4200103898        2.3738864111
 Si        11.5295980484        8.9450858729        2.2808351607
  O         8.3760201738        9.8937391184        5.0058390202
 Si         8.8398006736       12.8054638700        6.9719768257
  O         8.2133978056        7.5680170713        3.7928017178
  O        10.2410604633        8.0438885897        5.2582252058
 Si        13.4504335655       14.5716039893        4.2205797620
  O        10.5856175370        7.7217846095        2.7106239703
  O        14.5520068485       10.5200814584        3.7880566669
  O        10.8799859149       13.1218575322        1.9035727137
 Si         5.7539185249        4.2556715653       11.1111073710
 Si         1.0114861878        2.7088762167       11.1205917522
  O         1.8979640862        1.6461475341       10.2777739398
  O         4.5273696738        3.7924463919       12.0832429002
  O         1.9665804706        2.9631595217       12.4035429772
 Si         3.2059232227        3.7999138791       13.0202717330
  O         5.2623140574        5.5831261898       10.3605004794
 Si         4.9818565629        6.3207952004        8.9670716204
 Si         3.3748096834        0.9968628733       10.2349555295
  O         6.0820375012        3.2122352242        9.9301209172
 Si         5.7244834707        2.1406865009        8.7987865471
  O         1.2434336568        5.9198524822        8.7196773153
  O         4.1835523079        1.7087258004        9.0358490098
  O         2.6235519193        5.2683223655       13.2318330358
  O         5.6796838015        0.7454007363       13.8121008276
 Si         1.4362263125        6.1910880583       13.7782873027
  O         6.7604826585        0.9348192414        9.0329366469
  O         3.8419286626        5.6566000147        8.0507442441
  O         4.3559297194        1.0649016253       11.5320308769
  O         0.6554967722        4.0317185742       10.2770365443
  O         6.3418271476        6.4844384623        8.1396978802
  O         7.1416484976        4.5067445920       11.9010041502
  O         3.5538515723        3.2800523152       14.4889645915
 Si         2.3236063560        5.8210639001        7.5446219554
 Si         6.6498099044        1.7032885426       14.7119081208
  O         7.3983431271        2.7952577342       13.8044446479
 Si        14.8024918561        5.2846579807        9.5003596397
  O        14.7385931796        5.5066494216       13.5652033525
  O         7.6600969824        5.4288879922       14.2162723179
 Si        12.4806009551        3.9835257497        7.7938903590
  O        10.9436418171        4.2791172808        8.2290009560
  O        12.3224963554        6.5888674525       13.8905954360
  O        14.3626172218        2.1369370617       11.5110103138
  O        14.2156453474        6.4061839008       10.5111720027
 Si         8.0070339978        4.1723180167       13.2336733498
  O        11.0954497217        5.0077996555       11.1838927128
  O        13.5855820011        4.9458474675        8.4794525074
  O        12.8226664634        0.6501214696       10.0012945737
 Si        11.1020170719        3.8300415597       12.2765049485
 Si        13.0040875129        0.9506494674        8.4031661902
  O         9.6105735145        3.8683553994       12.9735903118
 Si        12.8861458650        1.4713664240       11.4145058046
 Si        10.5510420215        6.4773087846       10.8656020397
  O        11.5920717168        2.4732901124       11.5104193826
  O        12.3315935158        4.1042335582       13.3043775894
  O         9.7926544241        6.4002997137        9.4501609093
 Si        13.1879811548        5.2273093600       14.0708003256
  O        12.8214046336        0.5853611092       12.7637566464
  O        12.9008591816        2.5417634677        8.2995162149
 Si        10.0629994952        5.6259729904        8.0661124899
  O        14.4629011893        0.4949427381        7.8094751400
  O        11.8113314681        7.4796325193       10.8601195734
  O         9.4496822868        6.9760546355       11.9158421228
  O        11.8238179855        0.3379210610        7.4776799626
 Si        13.6139677193        0.2870821807       14.1414820377
 Si         7.5464950063        6.9326922827       14.8283785775
  O         8.6303600864        5.3462937266        7.3935743134
 Si         4.6416689929       14.8367569411       12.7712839605
  O         1.8004923353        7.5663887961       13.0020957827
  O         4.3556861930        7.7109901491        9.3541643921
  O         3.1163840408       14.6155245327       13.3218249675
  O         3.2119544175       14.2229824049        9.9448968326
 Si         2.2863327180       11.0287486184        9.6556431771
 Si         3.0332825473        8.6272625164       13.1097996620
  O         5.4262302084       13.4855209192       12.2564745081
  O         4.1054933906        8.5428081415       11.8979712144
 Si         4.2323745602        8.9406849976       10.3310297067
  O         5.5870326567        9.7799409411       10.0286931196
  O         2.7921415539        9.5267697634        9.8739911174
 Si         1.7677723622       13.9145704818       13.9382893773
  O         2.2943154081       10.0332222657       13.0523818841
 Si         1.3869218270       11.2273040614       12.5305358314
 Si         4.0764245998       13.2133892595        9.0344166282
  O         5.6599208496       13.3904481181        9.1211780306
  O         3.7005238370       11.7457942480        9.4632281315
  O         1.6350088747       11.5918155872       10.9992488710
  O         1.8119134698       12.4141195411       13.4744228508
  O         1.2404346749       11.2608952386        8.4643326077
 Si         6.9394573215       12.9253085713       11.9315776509
  O         6.9966292808       11.4237478824       11.3410321446
 Si         7.0565340632       14.1735039440        9.2412765783
 Si         7.0975410421       10.0292409451       10.5170959145
  O         3.8732827590        8.5488168560       14.4807336203
  O         0.2542840826       14.4672329716       13.6437995577
  O         7.5670399490       13.8862109433       10.7620174685
 Si        12.8065510589        7.9750946588       14.5644565117
  O        10.1099765350       11.3492231067       10.4209923877
  O        14.6029926445       10.9994608023       12.6645650959
  O         9.8780125169       13.9803781522       14.4636098615
  O        13.1479840201        9.0464730970       13.4744242824
 Si         9.1968311342       12.5860089721       14.0653271397
 Si        13.4780165559        9.9620053150       12.2327725126
  O        13.7297077749       10.4402818274        7.6517577777
 Si        12.5463349108        9.3580952547        7.8945110936
  O         7.4825965268        8.8020404816       11.4964933887
 Si        13.3071425419        7.7237291555       10.3114428132
  O         8.2771347604       10.0165574619        9.3678893690
  O         7.7972842764       12.9020566379       13.3138781220
 Si         8.7367631255        8.3385480198       12.3857935877
  O         9.5172409198       11.5778419866        7.7468289733
  O        12.1715551372       10.7542226531       11.7617896342
  O         8.0518809740       13.7124912460        8.0576217533
  O        10.1880811659       11.9189447152       12.9945340889
 Si         9.7619657299       10.6395565510        9.0101162611
  O        11.0991154289        9.7835588859        8.5564258998
  O         8.1343495984        8.0487097066       13.8301772220
  O        13.1591679478        8.1448276202        8.7721016658
 Si        10.5814224669       10.8592212277       11.8812812574
  O         9.8735631594        9.4737667769       12.3198241673
  O        13.9820429524        8.9661611875       11.0754046661
