216
14.949 14.949 14.949
  O         3.8279774226        5.8927071889        2.5736594698
 Si         4.8217973841        4.7131605500        2.1099702879
  O         3.8981102373        3.7366708261        1.2459774985
  O         5.4789180904        3.9051854503        3.3210359112
  O         6.0795469943        5.2253612518        1.2412509164
 Si         1.7700307219        1.3017479488        3.8967762160
  O         2.2396883009        1.2654093815        5.4417388385
 Si         3.2120794093        2.2975660937        1.3808859559
  O         2.8264814395        1.9902310505        2.9065752031
 Si         6.3753414761        3.6119350337        4.6048905395
  O         6.1518813990        2.0515729246        4.9895705575
  O         5.8990409663        4.6451726754        5.7402416823
 Si         5.4221667829        6.1533339851        6.0309404081
  O         2.7487484990        3.8087405709        5.9736837656
  O         4.8260371389        6.8852980454        4.7400898082
  O         4.3336248680        1.2363381380        0.9084361956
 Si         2.1853497974        2.3768377826        6.5791676702
  O         0.4262733476        2.1587319580        3.8296981543
 Si         1.3816780815        4.5387030311        6.5344536476
  O         1.9137496712        2.3258437891        0.4261358273
  O         0.7465169217        3.0830238260        6.9728402834
  O         6.7327770240        6.9898538981        6.4043534267
  O         6.8110089725        2.1609648143        0.4217680033
  O         0.4883216816        5.2432682782        5.4082762814
 Si         3.8670650760        7.1962860748        3.5054047351
 Si         7.2623562677        1.0090482221        5.5462641395
  O         4.3287510746        6.2362204574        7.1993418424
  O         7.4795670068        1.4005117932        7.0903601789
  O        14.7004121488        4.3199353385        2.4230525111
  O         9.4757189153        6.3120273697        0.8311774694
  O         7.9791921653        3.7424636663        4.3286485359
 Si        11.8126788819        5.5737456577        6.9998013237
  O        13.3699769721        5.9950690643        3.7184237912
  O         8.7053563389        1.2620413774        4.8849150120
 Si        14.1697132283        3.0049268460        3.2376476999
  O        13.3658681361        2.0775986642        2.2364459035
 Si        13.6961640780        5.5743071499        2.1466324872
  O        13.1309321665        3.4037325960        4.4041250016
 Si         9.0310521606        2.5435702968        3.9741981443
  O        10.5632987905        2.9034222882        4.3097207582
 Si        11.8585915380        2.9878943621        5.2965848753
  O        11.5429103637        4.1249211243        6.3862090931
  O         8.6362392259        2.0637735084        2.4959286565
  O        12.6282722409        4.9130601336        1.0699986978
  O        12.2803313834        1.6622887355        6.1367425071
 Si         8.3636953877        2.1697800253        0.9219956405
 Si        14.1805958980        6.2546774983        5.1149940425
  O        13.2037411933        6.1453775045        6.3925991501
 Si        13.1050444652        1.5142040319        0.7710734875
  O        10.6372347851        6.5684071809        6.5725295136
  O        14.2020646931        6.9810348390        1.4970705963
  O         9.0502230524        3.5703826336        0.5911485012
  O         9.1351863188        0.9160914210        0.2489557740
  O        12.1189643193        2.5621000143        0.0074545457
  O         2.4030790486        7.5373493014        4.0681261861
  O         1.5812162108       14.7113015075        3.4856009187
  O         3.1768302546       11.2047336740        0.6825192016
  O         6.1465226642        9.3083720022        0.7337654106
 Si         3.8299119231       12.7068709820        6.4848194050
  O         4.4938831977        8.3986986537        2.6465710873
 Si         1.3509512004        8.4361079867        4.8858831460
  O         1.9887030030        8.8817155333        6.3042207016
  O         3.0830449955       13.5302208479        5.3223038160
  O         4.9900237715       10.9398503436        2.4916126613
 Si         2.2607817295       13.3353616612        3.9639249424
  O         3.2319721056       12.7958366270        2.8116818474
 Si         4.1081582879       12.0190583585        1.7291221626
  O         1.0783087155       12.2936437972        4.2359611581
 Si         5.6104648170        9.4827756368        2.2434029563
  O         5.3964344294       12.7005444114        6.3140300424
  O         1.0821338996        9.7213665843        4.0075018996
  O         6.8718971063        9.4642940072        3.2332370875
  O         0.8175772637       11.0402500808        1.9103859656
 Si         6.8579986890       12.9263815094        5.7624550691
  O         5.0734150848       13.0523048697        0.9898569223
  O         3.4111211325       11.1422006323        6.3939296250
 Si         0.4370669139       11.0564049862        3.4632354871
 Si         1.5788169882       11.2624937178        0.5363962632
  O         6.8920363563       14.4437046572        5.2355949925
 Si         2.4626452962       10.1327958040        7.1953457537
  O         6.8909083737        9.6282152889        5.8207960335
  O         7.1391027516       11.8826432419        4.5651674664
 Si         6.3395504383       13.5327968677        0.1590785673
 Si         7.2752225428        8.4284541454        6.8354749032
  O         1.2417658594       12.7848753986        0.1657296286
  O        -0.0744005785        7.7105331232        5.0713998205
 Si         7.4598375798       10.3077819756        4.4677618577
 Si        13.3128630118        8.1946491737        0.8525313976
  O        12.5926647754       14.9783295164        1.0852703418
  O         9.8755173306        8.3887803122        2.3860380660
 Si        10.3738249471        8.1291598734        6.3628896684
  O        13.2094873126        9.6298953894        1.5926997787
  O         8.8682494502        8.3884577462        6.8073033620
 Si        11.9458316872       13.5263542947        0.8773168285
 Si        10.2490513944        7.7309266050        0.9656759280
  O        10.3748881030       13.7009897672        1.2378259872
  O        12.0444742003       14.2053902121        7.1486666684
 Si        10.2398106829        9.3548238591        3.6242556187
  O        11.3004569636       10.4598535239        3.1556832711
  O        11.2145076951        9.1229067871        7.3073093488
  O         7.8848460264       12.7097647569        6.9795670837
  O         7.6452343699       13.8711374496        1.0867639070
  O         9.0412348078       10.2082927761        4.2441037688
 Si         9.0907407516       14.2646443195        0.4404787942
 Si        12.6919390619       10.8794193361        2.4982208766
  O        11.8424295860        7.5496520787        0.8312998263
  O        10.7285280604        8.3971333307        4.8174651263
  O        13.7937112556       11.1187004468        3.6472058181
  O        12.5361368725       12.2952529902        1.7375779903
  O         2.8785725905        3.9124960057       12.5336130762
 Si         4.4626867074        3.7040166292       12.8822093337
 Si         5.3052580324        3.8324079924        9.9540313631
  O         5.3130754959        3.9087860704       11.5446053447
  O         4.7263342075        2.3317118197        9.6342749617
  O         0.9796976849        2.2476707427       12.8574717814
  O         5.0725178351        4.8095891842       13.8640769047
 Si         1.5231634607        3.3168322060       11.7921230343
  O         2.0938558318        2.6602015621       10.3959094145
 Si         3.1797152476        1.8217792593        9.4911812977
  O         4.8178433316        2.2483901977       13.5316548558
  O         6.8209092582        4.3194691134        9.5493613949
 Si         3.3552103827        5.8371638999        8.4038363227
  O         4.1504864371        4.7485611875        9.2896051835
 Si         0.9974586928        1.5642410910       14.2980208930
  O         2.8450848132        1.8394609217        7.9141685769
  O         3.0002294611        7.0511436560        9.3737236379
  O         3.0646172689        0.2629539181        9.8757886373
  O         5.9854143214        7.0718676137       14.4475057733
 Si         6.2862398680        5.5337439929       14.6179448661
 Si         5.4969671090        1.4097632992       14.7423890886
  O         0.1564152811        4.2366576105       11.5356308808
  O         1.9029343429        5.4018229176        7.7992527813
  O         1.6722258504        0.1447222008       14.0453261535
  O         7.8154968122        5.2319553137       14.1154362948
  O        12.3071575654        1.3209671559        8.8572126560
  O        13.0471906097        2.6679360041       11.1280727884
  O         8.3884532430        2.9203390001       11.0465922797
 Si         8.4244921576        3.9919883435        9.7963271318
  O        10.6258222389        1.7414649179       10.7974872193
  O        12.3566410883        5.1530474067       11.0455682348
  O        11.8006810979        5.4798005904        8.6024882538
 Si        13.4440856481        4.1228691758       11.7506406924
 Si        11.1556048568        5.7216242931       10.0634069595
  O         9.6284649906        5.0593080882       10.1343028262
 Si         9.0408595738        1.4682055129       10.8038463974
 Si        12.1840973679        1.4800346241       10.4794878110
  O        13.1977964090        4.3136401401       13.3635737980
  O         8.4802770653        0.9989525102        9.3753374841
  O         8.8897436162        3.3045079631        8.3889797353
  O        10.7126443884        4.7427895494       14.1227010617
 Si         8.7609829440        1.7287717372        7.9907687045
 Si        12.1655955514        4.1601723933       14.6219656162
  O        10.8723621936        7.3048245062       10.3041460704
  O        12.6196905737        0.1084764883       11.2190758401
  O         8.6303206286        0.1530962879       11.6249470079
 Si         9.2618759385        4.9920626306       14.8527091339
  O        10.1313290972        1.1575141211        7.3896599496
 Si        11.7145588764        0.8391549292        7.4087151256
  O        14.4576474052        1.4155721022       14.8615177358
  O         5.9684429031       14.8789939875       14.2870771901
  O         3.5635867304       13.4534245190        7.8822645991
  O         3.2395434677        9.5453854101        8.4793776148
  O         3.8196603375        8.8898455189       10.9644538383
 Si         4.9528602147        9.7102782312       11.7443748156
  O         5.1405660729        9.1297038420       13.2147101089
 Si         2.8548564035        8.5895110168        9.7304123640
  O         4.4746462347       11.2184932723       12.0440608550
  O         6.3034516932        9.5533110617       10.8784654576
 Si         1.3300334040       13.5824935898       13.7313090184
 Si         6.2486974530        8.6110652321       14.2285087647
 Si         3.1175620243       12.0153130247       11.7371291849
  O         3.4994844815       12.7765008804       10.3897636878
 Si         2.8614813331       13.7319961630        9.2916012103
  O         2.5737878091       13.0308622967       12.8641358402
  O         1.3192339669        8.8882090542       10.1281104756
  O         1.9114609534       10.9728518889       11.5366699819
  O         1.3212396785       13.2893579104        9.1452325104
 Si         0.6895007672       10.1593412700       10.8917742063
 Si         0.4315338849       12.0546751514        8.6103991992
  O         6.8213428276       12.3612826499       14.1000577784
  O         6.7172510162        8.7285531339        8.3162123416
  O         1.0902929083       10.2047764047       14.3701462586
  O        -0.0857439489       11.1441583501        9.8648630903
 Si         7.2499520936        9.5793204563        9.5852415894
  O         1.2293789343       11.0468267200        7.6516280731
 Si         9.1572971142        9.3573345935       13.4487329488
  O        14.7141360958        9.6316319404       12.0990910113
  O        13.6988474878       11.1334313663       13.9553494936
  O         8.6386045352       13.3541030460        9.3916286444
  O         7.3150755130       11.1271117478        9.1284397268
 Si         8.2689113838       12.3129701602       13.3741346062
  O        11.0533519550        9.8844553065        9.7929499447
 Si        13.4177840962       12.5848194354       13.3402213526
  O         7.6507162606        8.8030672797       13.4572023175
 Si        12.6894198165       12.9405403269        7.9365277179
  O         8.1306291592       12.5365837431       11.7920961075
  O        10.0314784792        8.9793514285       12.1436634965
  O        12.2859148915       13.2163006645       14.2819107157
  O         9.1370685546       13.5370949498       13.9531320093
  O         9.0590381904       10.9506605661       13.6268101069
 Si        10.1663639303        8.7439048694       10.5505517210
 Si         8.9423059768       13.6361743554       10.9545712294
 Si        14.6120243610        9.8425548068       13.6880963358
  O        14.2697417175       12.7881906217        7.7147183352
 Si         8.3533265600       12.1176322794        8.3946395593
  O         9.6332475682       11.2089478222        8.0567836944
  O         9.8824303601        8.7244555169       14.7181843327
  O         8.6619456816        8.8872376524        9.9641903438
  O        10.5172545191       13.4497207942       11.1416892920
  O        12.1192311518       11.4562692965        7.7146189961
  O        14.7847103707       13.4418740773       13.1199492215
 Si        12.0907370676       13.5530545779       10.9594914358
 Si        11.0164224947       10.4164852820        8.2464819621
  O        12.4538024198       13.2118093771        9.4717645695
  O        13.9520303737        8.5440464696       14.3631890423
  O        12.7903031759       12.4603980120       11.8804699877
