216
14.826 14.826 14.826
  O         2.3809807012        3.5404997499        4.2045996498
 Si         3.6476495437        2.5435824410        3.9310519467
  O         4.8674030748        3.5268477301        3.5392225687
  O         3.2941838815        1.5546701674        2.7086939705
 Si         5.5448456213        4.9757354596        3.3211667498
  O         5.8535916904        5.2660224616        1.7391333581
  O         4.6047316330        6.1098814989        3.9529500740
 Si         0.6455624117        2.1399957629        1.3064090173
  O         1.2381847469        0.6317734747        1.5059728173
 Si         0.7718241036        3.7080546744        4.0239979333
  O         4.0334995618        1.4825593147        5.1021070492
 Si         4.9700253121        0.8653893492        6.2659699668
  O         6.8351582185        5.1044305240        4.2840508035
  O         6.4461210822        0.5968139077        5.6913559957
  O         0.3311648597        2.8728348754        2.7159786249
  O         0.4839381603        6.1770317628        6.1678401831
  O         1.8028278344        2.9693630325        0.5907213180
  O         0.0847645896        5.1946872082        3.8780039053
 Si         2.5136745510        0.1628484757        2.4172132815
 Si         5.6175224327        4.6884386382        0.2233994194
  O         4.0572959301        4.2698798416        0.2445868173
  O         6.6739035793        3.4748281215       -0.0042321150
  O         4.7801999619        1.9677220076        7.4030878652
  O         2.6541359541        7.3282318711        7.2407822868
  O         0.1472379861        3.0433674806        5.3613718044
 Si        14.5838028039        6.5295497333        4.7760581330
  O        14.1185377983        2.1450204429        0.4147001273
  O        12.8704879997        3.9283140218        6.7482629777
 Si         8.9608747669        3.7460476990        6.5765869233
  O        13.3518364082        1.3233285765        6.5791938895
  O         7.9860445283        2.5813280259        6.0862866872
  O         8.2412677265        2.4749552016        1.7973098249
  O         9.1414380281        4.9326845364        5.5210139318
  O        12.1870820652        2.8892055986        1.9849886696
 Si         8.2483111608        5.8119271184        4.5249761581
 Si        13.4614760297        2.7390587492        5.8087648984
 Si        11.5920111433        3.3519329622        3.3925801831
 Si        10.4288264511        5.8778842448        2.5719888087
  O        12.5220107507        2.7230632372        4.5174484977
  O        10.1272728315        2.7118168763        3.5393459690
  O        11.4435073054        4.9711572545        3.4609020525
  O         8.9081763062        5.6708640674        3.0591066456
 Si         9.1521047411        1.6326848773        2.8437006524
  O        10.7135067888        5.4295054216        1.0736638784
 Si         7.9846172792        1.0385628937        5.6271152312
  O         8.3983622289        0.9070952492        4.0687469983
 Si        12.5248462445        2.3878103948        0.5045377062
 Si         8.1439161884        2.8302367317        0.2128728196
  O         9.8831761312        0.4970456769        1.9852034799
  O         8.1601528248        7.3161809312        5.1732164756
  O        13.0138972225        7.0030701910        4.9419862853
  O        11.7753477926        0.9805950062        0.2443035695
  O        10.3857575405        3.0488514318        6.8328649706
 Si        14.3523691565        0.1719674624        7.1356596162
  O         0.4934463392        7.8301297210        4.1932956377
  O         4.6907211815       14.2566758251        6.9878350096
 Si         4.6388655177        7.6236472304        4.5049131767
  O         1.9742602109       14.3185361849        3.7866922467
  O         4.9414876793        7.8194124948        6.0995992925
  O         3.1339241704        8.0675990543        4.2883287094
  O         5.2704416639        8.4865946358        0.9974835153
  O         3.5361163707       13.9303904129        1.7356368010
 Si         4.7526854290       13.5851104080        0.7229524099
  O         6.0973900232       13.0871871608        1.5701336125
 Si         1.2117958371       10.9270642160        5.7245795999
  O         1.8079319371        8.6396481225        2.1614106556
  O         5.6892800046        8.4858247256        3.6111912125
 Si         1.7787943955        8.6816997471        3.7573222319
  O         1.7951631284       10.1410268398        4.4420811558
 Si         1.4654324262        9.0268117884        0.6558496674
 Si         6.3020395080        8.9187475757        2.1700661743
  O         6.4295192269       10.5289823948        2.0488989226
 Si         0.6655544357       13.8178654931        4.5926745514
  O         0.6657770056       12.2955070665        5.1039715523
  O         0.5701112639       14.7426193241        5.9221144714
  O         0.4791642435       10.2886258605        0.7366559237
  O         2.2210222561       11.2861719500        6.9297168245
 Si         7.2286713119       11.9343171456        2.0241945963
  O         2.8958997931        9.3902923957       -0.0024641693
  O         0.0853724439        9.9611214691        6.3433358489
  O        10.4649991473        7.4924904010        2.6317074532
  O         7.9778733881       11.8735155961        3.5325971407
 Si         8.9781518307       10.8688614400        4.3760453263
  O        12.5690787454       10.3745849205        0.7346797253
  O        10.5421779137        7.9978279934        5.8475332341
  O        12.0299680283       13.9340984260        2.1259753750
  O         8.9058023393       15.0157104821        6.6606847373
  O         8.4048650319       12.0218336731        0.9084615890
  O        10.3690776521       13.5703355347        0.0822516353
 Si        11.9343671662       11.1702408025        4.8097876986
  O        10.3642020371       11.6098403074        4.7712547171
  O         9.3897990806        9.6371502317        3.4633088965
  O        12.5082661679       11.6198333079        6.2559256931
 Si        11.0247166015       14.6428509118        1.0861797022
  O        12.6831651411       11.8515564501        3.5616395586
  O         7.7792552072        8.2313248269        1.9873987987
 Si        13.2549629932       13.0358743087        2.6358321664
  O         8.4931212253        9.9748790303        5.6735407624
 Si         8.9697678479        8.4365333343        6.0666231893
 Si        12.1319624859        8.2398737839        5.5867344029
 Si        13.9710005672       11.1212839586        0.3877157682
  O        12.1905699189        9.5782463709        4.6773957761
  O        14.2495419382       13.9271883716        3.5480361517
  O        14.0018763329       12.4377358346        1.3217936498
  O        12.8390569050        8.5614816231        7.0062035848
 Si         9.3432963067        8.6134947224        2.2703666898
 Si        11.1565167887        9.8123435192        0.1589534528
  O         9.8883696638        9.4770971724        1.0666774381
  O        11.1386060600       13.6705898330        7.1550612789
 Si         1.9336630949        4.2314349483        9.2682443614
  O         2.0485999952        4.3590059773       13.3498187741
 Si         2.1053539332        5.4378355817       12.1709889435
 Si         4.0991247595        0.7062654345       13.2810118268
  O         3.6248959926        5.9257809872       12.1077424588
  O         7.0127440521        6.3227630357        9.0542378040
  O         1.8922790838        4.6886800143       10.7891566891
  O         5.7696457787        5.6863377828       13.7548434690
  O         1.2452693968        2.7931153186        9.2196448939
  O         0.9876710416        6.5953818976       12.3667324535
  O         3.3626567341        3.9705987828        8.5821704392
  O         1.2319525197        5.4330922391        8.4776519579
  O         5.7963189511        4.1987119787        8.0840470570
 Si         4.9648284930        6.5925246912       12.6550902952
 Si         4.7000538270        3.1077340154        8.4981763014
  O         4.9468248946        2.3099411938        9.8829459717
  O         3.6035367588        2.1814456857       13.6553122641
 Si         4.7299504816        0.7950965196       10.3728695301
 Si         2.8849142816        3.4325658297       14.3553957990
 Si         7.1093432565        4.7646912982        8.7827410268
  O         0.9014890552        0.6635986760       11.0398131105
 Si         0.3880777278        1.5847203715        9.8202298669
  O         5.0260916204        0.8208654261       11.9552674704
  O         5.7705983915        6.9908469907       11.3036670028
 Si         1.1996894126        6.6949026849        7.5019694037
  O         3.2053758107        0.3256713972       10.2065826062
  O         0.1544883336        0.6556072742        8.5311037498
  O         2.8069475937       -0.1638803288       12.7714937543
  O         4.8706154425        0.0767652538       14.5676692455
  O         7.2357455905        4.0367581155       10.2070866480
  O         8.0729454186        2.6289507268       12.1095116887
  O         8.3231401714        1.4070930315       14.2472954730
 Si         8.2607887332        1.0909660588       12.6590036011
  O        10.9520430412        5.8456539420       13.4290635005
  O        12.1128523789        2.5375291279        8.7565415649
 Si         8.5859376254        3.4878918567       10.8330988232
  O         9.3183118508        2.3894257431        9.9008862314
 Si        11.0032625323        5.1623658553       10.1086272175
 Si        12.4781878830        2.6843652359       10.3207231202
  O        13.9903201530        2.3168555135       10.5455944853
  O        12.1209452004        4.1939966880       10.7858905061
  O         9.6167334955        4.7605162766       10.8764320995
  O        11.0417746527        4.8718968611        8.5152190523
  O        11.5754699706        1.5595866264       11.0213068435
 Si        10.1483699512        1.0933787032       10.4326924218
  O        11.3599612579        6.7152469342       10.1277649398
  O         9.4834214606        0.4985468978       11.7750241430
  O        13.3467825886        6.8329402700       13.3433490702
 Si        11.7736055299        7.2542097736       13.3280219233
  O         8.3962995947        4.4431700234        7.9057749827
  O         9.3005016050        3.8585347246       14.4956105150
 Si        11.6078914741        3.6233329848        7.6981473022
 Si        10.7256067142        4.6413561715       14.5029268845
  O        11.9307430658        3.5460618970       14.3473530777
  O        10.1403038473        0.1649165049        9.1424652625
 Si         6.0184611552        7.3671325791        9.7534559659
  O         4.6992747242        7.4157013557        8.8196533672
  O         3.9528575805        9.6478048200        7.7543661740
 Si         2.1657864938       14.5460859776       11.2820413153
  O         4.0265122752       12.3358769125        8.4906524310
  O         4.4482940681        7.8814625360       13.4236767724
  O         5.5136365378       14.5111839841        9.4841786808
 Si         5.1799628800       13.4301886295        8.2965331513
  O         5.2010260242       10.2288101066       13.8276480029
  O         1.8198451355       13.0205878018       10.9499413767
  O         3.7045845182       11.5263491262       12.0164659664
  O         1.2294957627       10.7196521466       11.9436803737
 Si         2.3512339674       11.5053273423       11.1189738599
  O         2.4775694192       10.7887933044        9.6620153802
 Si         4.7965282477       11.6488205974       13.2031882575
  O         6.0948634938       12.3581566118       12.5929689160
 Si         3.1759020228       10.9999728878        8.2034104393
  O         6.5055745848       12.5173474468        8.3092701076
  O         6.8334705150        8.7404029186        9.6380876455
  O         0.3263599256        7.9093253041        8.0772196029
  O         4.2767810395       12.4479023248       14.5064173930
 Si         4.4413226246        9.0087872219       14.5352595032
  O         0.7316215498        7.8356619501       14.6473106898
 Si        -0.0186064123        7.5370352638       13.2244825366
 Si         4.0739096600        8.0559709757        7.4674452090
  O         7.2557725243       14.6657937021       12.4482816008
 Si         7.4754655074       13.0786989114       12.1832373655
  O         8.6437411952        8.4011947059        7.6522439612
  O         8.3212027289       10.6749777243        9.0653204992
  O         8.6421830452       12.5379221909       13.1569382172
  O        14.0731974150       10.0652080143        8.8146012575
  O        11.2048827177        8.1546746964       12.1119471474
 Si         9.7703771460       14.2196112699        7.7732344515
  O        13.6669238540       13.5909102358        7.4936539248
  O        14.0693568347       11.3667525851       13.6102524840
  O         9.3931978004        8.4862978373       10.1380969118
  O        12.1939331654       11.8617254537        8.8890582487
  O         7.8195521832       12.7618383611       10.6347467335
 Si        14.2472723568        9.1211201042        7.5425420971
  O        13.4980280237       11.0322640059       11.1172831616
  O        14.4103379674        8.9426082917       12.5251866877
 Si         9.4640598662       12.2799828430       14.5124270210
 Si         7.8705470992       12.2081009974        9.1128954078
  O         8.9781820682       12.9324652736        8.2388284005
 Si        14.4989741683       10.5372288651       12.2849951704
 Si        10.9243516221        8.2139157212       10.5361915014
  O        11.5382003262        8.3247319332       14.4958927926
 Si        12.8494272981       10.6080965096        9.6978088648
 Si        12.3540063432       12.6673258114        7.4760673287
  O        11.7866559406        9.4039943879        9.8841561894
  O        10.4695866559       11.0432720506       14.1640532427
 Si         8.3140390647        9.0764007108        9.0882329494
