216
14.928 14.928 14.928
  O         4.4787979852        3.8093094782        4.9762818671
  O         1.6730538863        0.9442230285        3.9797917451
 Si         5.4203040592        2.6672789265        4.3163569744
 Si         5.6624227017        2.0497029069        1.3569806195
  O         5.3047837125        2.8212905327        2.7248711291
 Si         0.8895925893        2.3664449503        3.6917747569
  O         1.4845613889        3.0585398949        2.3281331951
 Si         2.0125335861        4.4851183187        1.7357472196
  O         2.1654705848        5.5707658168        2.9017310777
  O         4.8897602104        1.2524683551        4.8126994473
 Si         3.7435900962        4.0785507961        6.3933763869
 Si         0.8166070875        4.1208421153        6.2321791809
 Si         3.9578023950        6.9922073520        5.7654660490
  O         2.2411751056        3.5735831611        6.7178581526
  O         0.9093540395        3.6449222777        4.7022200696
  O         3.5625401332        5.6629960718        6.5554949212
  O         4.6428824863        0.8336324605        1.1595834371
  O         3.3897837328        4.3122806299        0.9118488072
  O         6.9617304247        2.6602244038        4.7327345148
  O         0.7520136481        5.6896566529        6.6169472599
  O         5.5576235928        6.8866775057        5.7327657556
  O         0.9888348234        5.2249209502        0.7433293537
  O         3.5623673882        7.1396726255        4.2214444055
 Si         2.5166522028        7.1400311152        3.0143100367
  O         5.4030883216        2.9850756456        0.0808250280
  O         7.2081991988        1.5844612408        1.4097112314
  O        14.2394702862        2.0030957533        3.7345387260
  O        13.1799489983        6.1297628948        6.6191254064
 Si        12.8346564527        2.8123900369        3.8864827577
  O        11.7606014821        1.7281900362        4.4715965784
 Si         8.5425757672        2.5627796645        4.5457826199
 Si         8.6432840051        2.3344390850        1.4854841415
  O         8.8769419415        2.9068622685        2.9909096037
  O         9.1206007848        3.5626087093        5.6354340430
  O        12.5268921908        3.3187466966        2.4044901337
  O        12.8571170012        4.2250525827        4.7193476526
  O         9.2223463098        1.1350498219        4.8814069099
 Si        12.1983077562        5.4665669159        5.5332046718
  O        11.1165629816        4.8226731504        6.4776915496
  O         9.7878896754        1.2440156710        1.1600871153
  O        11.5242351862        6.6924793313        4.6595639804
 Si        10.6784117141        0.4944310408        4.5465833160
 Si        12.6344094120        3.4643955345        0.8188161196
 Si         9.6876749681        4.3249432706        6.9096515218
  O         8.6290151088        3.5631900557        0.4203050746
 Si         8.7083972587        7.2018233569        7.2395807455
 Si        14.5555415783        6.7052601181        7.1840538119
  O        14.5078124534        3.4071491521        6.9680736152
  O        11.1242445246        3.6411061805        0.4211161676
  O        13.4484866972        4.7312056109        0.2414471682
  O         9.8724333777        5.9403308208        0.4112565577
  O         8.6967996490        5.5819858527        7.1353068772
 Si        13.2770543398        0.5464189281        0.2128401757
  O        13.2685259729        2.1468013881        0.1655578187
  O        14.8173491479        0.0791307688        0.4264317662
  O         0.9065481689       14.8309793593        6.1556096306
  O         5.7289788546        7.5496449266        1.6674262014
  O         3.1520460203        7.7847229980        1.6620195219
  O         3.4209210942       14.2736537811        5.4054580124
 Si         4.4658683248        7.8318968842        0.7214751725
 Si         1.8870743383       14.5086057856        4.9046579922
 Si         6.4657454714        8.1506308650        5.3668667028
 Si         4.8626887298       14.5968875657        4.7555948655
  O         1.2451186749        8.0423483523        3.4031135297
  O         4.4821624511       13.2592943143        0.7406900330
  O         6.3908253129       12.2743546658        2.1606452280
  O         4.8922183395       14.1028328066        3.2325516161
  O         3.3988543033        8.3540144238        6.4598219830
  O         3.7320258992       11.8598203701        2.8281498143
 Si         4.8757724205       12.8406138171        2.2402528573
  O         3.0726903635       10.7052683288        5.0469556080
 Si         3.9750232153        9.8310628179        6.0739463868
 Si         2.4720025985       11.6190705526        3.8277554567
  O         1.6706589744       13.0194618617        4.2201459066
  O         1.4039189637       10.6912088712        3.0604638513
  O         6.1392026398       13.9299245253        5.4734212267
  O         5.4708567521        9.4564838126        5.4768377924
 Si         0.4255328458        9.4185845589        3.2069729866
  O         6.8833588716       11.5353283793        4.5643648553
  O         6.8017465227       12.0989211701        7.1344341474
  O         6.7926481651        9.8346074357        2.3411774364
 Si         7.0068598157        8.2421181846        2.3449115849
  O         7.1287736761        7.8849777121        3.9121288523
 Si         7.1490168909       12.6798174622        5.6790035946
 Si         7.2571636220       11.2147214636        3.0169502890
  O         3.9162981076       10.7075410480        7.4132657890
 Si         4.1135047722       14.6867178960        0.0943930039
 Si        13.8311382824        9.3024967090        5.9219703515
 Si        10.6085256985       14.8402331877        1.5670134057
  O        12.2009315195       15.0079471310        1.3208795247
  O        11.1798356407       10.2679744660        2.3305428709
  O        14.4315057405        9.2030482061        1.9032879544
  O         7.6335364873        8.1243916036        6.4592444475
 Si        10.9815672875        8.1015900574        5.3291182183
  O        10.6115657000       12.1908364721        7.2970315654
 Si        14.1719598443        9.4790709283        0.3397926909
 Si         9.2390605864        7.4148644736        0.2343432167
 Si        10.2497261486       10.5765192905        3.6255789566
  O        10.1218069993        9.1239479571        4.3898194293
  O        11.0232193718       14.2516051885        5.6267326030
  O        10.5246916976       14.6075355022        3.1539371722
 Si        11.1496044406        9.9493144232        0.7280530158
  O        12.6883875818       10.1191323394        0.2489862644
  O        10.7705172735       11.6849158840        4.7118670510
  O        10.4394416546        8.5364694600        0.2579232462
  O         9.9702587579       13.6085825074        0.7501953599
  O        12.2914156371        8.8823749008        5.8010175210
  O        13.8438340207       10.4538202329        7.0334132375
  O         8.8739542923       11.1857123722        2.9908754789
  O        14.4204721508        9.7086950249        4.4871287513
  O        14.7763081040        8.1253200583        6.4797240221
  O         8.2968236811        7.7961967152        1.4948400273
 Si        10.2954807534       12.7956191004        5.8216996668
  O         8.7071224543       13.0947884288        5.6387002722
  O        10.1210403759        7.7125752753        6.6414713541
  O         2.9924343155        2.9047448767        9.6124389778
 Si         4.6039228370        6.1340683846       13.0395903341
 Si         3.6344584968        2.1140283911        8.3879496994
  O         4.7284679566        1.0876085078        8.8665049400
 Si         1.8024906710        3.7733276900       10.2121065365
  O         1.6556778189        3.2322443878       11.6979644524
  O         2.2387607907        5.3214206038       10.1201598913
  O         6.0918050316        6.4610680198       12.4564560785
 Si         1.5077033426        2.5971380562       13.1434384497
  O         0.9978019727        1.0705718846       13.1777402297
 Si         2.7195809991        6.7609171608       10.6531357010
  O         3.3063166855        6.5541544264       12.1618290462
  O         4.4736392395        4.5544899842       13.2681308806
  O         2.9114216196        2.6371029963       13.9359423833
  O         2.4730442482        1.2404977460        7.7047079430
  O         4.3960585897        6.7195319895       14.5132217352
  O         0.4022459386        3.4980054753       13.8588813480
  O         0.3975648840        3.5661181816        9.4496041981
 Si         4.0308662418        3.6456295946       14.5105279885
 Si         5.9398033590        0.4506665403        9.6280855252
 Si         1.0868250747        0.4299233937        7.6858791535
  O         7.1511924363        1.4368068181       10.0293872450
  O         0.0834585857        6.0530127229       13.3507985922
  O         7.2266920958        0.7496523760       12.5332657284
  O         4.4884835115        3.1547023927        7.4704183232
 Si        -0.0284237822        4.9044357416       14.4813690503
  O        14.7490383982        1.2744538767        8.2871584271
 Si         7.7109285516        6.6844275613       12.3875973839
  O        14.5159496680        6.8873194672        8.8036869997
  O        12.7542694674        3.1676983929        8.9468725753
 Si         8.1404765699        1.2830393712       11.3015537418
  O         8.3937013055        5.3677999789       11.6989259456
  O        10.6856429727        4.0589535166       10.6149998657
  O        10.1111417627        4.3295363309       13.1942082396
 Si         9.4774794634        4.1441118664       11.7335002725
  O         8.7160013237        2.7265946462       11.6793159317
  O        11.0288292084        1.5407221346        9.7244789588
 Si        11.1567531578        3.0911288630        9.3585409494
 Si        14.2746290928        2.8281514217        8.4640594610
  O        10.0395168103        3.4083693878        8.2071557588
  O         8.3050689060        7.2117184607       13.8215592656
 Si         9.8878755719        4.4257093336       14.7816536560
  O         9.2857114116        0.1693840439       10.9522278150
 Si        10.7797636264        0.0736390713       10.3054348067
  O         4.0018686533        7.4546491412        9.9592972846
 Si         1.0626754223       14.7830378621       14.2499494816
  O         4.8811575321       14.9111594750       13.6166616572
  O         1.4918601081        7.7922142765       10.3616488749
  O         5.3010355668       14.8413925943       11.0129663659
 Si         5.9666136523       14.6605146736       12.4605979040
  O         6.5585402991       14.2833738378        8.6274802170
  O         6.2227911240        8.7113071573        9.7850519099
  O         1.2444098332       14.1000153256        8.6263474292
 Si         4.6037243635        9.9494869832       13.4064444533
 Si         6.5107538491       12.6907752752        8.5983309486
  O         2.5508608278       12.0277644846        9.3736223260
 Si         1.4633512759       10.1095385208       13.3923438308
  O         3.9793707622       10.0390458394        9.9534186582
 Si         4.7794553976        8.7736391088       10.4824015745
  O         4.8118108183        8.9621223723       12.1126424852
  O         3.0503065251       10.5187355491       13.3569794013
  O         5.9001459885       10.9466743140       13.4303399609
 Si         3.8566075335       11.2484209411        8.9242160038
 Si         1.1405830771       12.7651777489        9.4611170808
  O         5.0679121588       12.2663105030        9.1222132161
  O         1.2630990396        8.5393406510       13.0105384628
  O         6.5424007629       13.1791012844       12.4396211449
  O         0.6533923952       11.0422485481       12.3482063270
  O         0.8225404480       13.3698388484       13.5233988763
  O         0.6644156826       13.1855505484       10.9388159080
 Si         7.2038734945       11.8476261431       12.9974420906
  O         4.6463659214        9.2102477924       14.8428076218
  O         0.5766148581       10.2867457244       14.7642289404
 Si         0.1234807457       12.5720914768       12.3158205410
  O         2.5123971043       14.7636920850       14.9258720110
  O         0.0766254769       11.7857100793        8.8091855098
  O        12.7713349753       14.8405696292       13.7630076152
  O        11.8481990430       14.5943082889       11.4362372006
  O         8.6243291213        9.7797709005        9.6988766869
  O         8.3913145506        7.4463809849        8.7921589200
 Si        14.8285154275        7.9556397886       10.0161932802
  O         7.6236886438       12.1969972338        9.6130827368
  O        14.0098549320        8.2082157421       14.2658021478
 Si        13.8436174923       10.7260332231        8.6172227882
  O        13.4314441788       12.6900331930       12.4386862805
 Si         8.6446422510       11.2336162041       10.3467308817
  O         8.1254255938       11.1173452637       11.8717479168
 Si         7.8048407333        8.4299401116        9.9008785271
 Si         9.8548830419       12.5423035278       14.4697471081
  O         8.2881448237       12.3532837138       14.0979043126
  O        14.2585399982        9.3787702340        9.4571071878
 Si        14.8359616223        7.6221983553       13.0079256113
 Si        11.0823656004       12.3240399028        8.8500831251
  O        10.1211839215       11.7741987688       10.0373354594
 Si        12.2176282084       13.7386454030       12.7382838936
  O        11.0362508549       13.9286562016        9.1215866003
  O        12.4436512959       11.4477552489        9.0375441042
  O        14.1792794245        7.7108608679       11.5105776834
  O        10.8638058546       13.0192966790       13.2774228574
  O         8.0473288588        7.8755051035       11.3748554239
  O        10.2965334608       11.0861055575       14.9343024420
