216
14.873 14.873 14.873
  O         4.1386595321        3.4618112424        2.4705254058
  O         1.0653666934        2.3146207483        4.2928371960
 Si         4.7222007124        2.1732680030        3.2249931556
 Si         3.2342092764        4.4112663976        1.5584763449
  O         5.5434021102        1.3300323827        2.0730752106
 Si         1.9735363080        1.0140017524        4.1094507668
  O         5.5154196498        2.6277377079        4.5498076135
  O         2.0621544314        4.9647583841        2.5440370663
  O         4.1242036334        5.6880922808        1.1701044080
 Si         1.9003984487        6.4714542175        3.1606497045
  O         3.5188830950        1.3069167396        3.8266643434
  O         0.7407445913        6.5274481912        4.2979691626
 Si         5.0059363494        0.8315050171        0.6078673482
 Si         6.9411502216        3.1601840661        5.0686944693
  O         6.3694129795        6.8617314258        0.7497332109
 Si         4.7714002670        6.9878320507        0.5294865009
  O         6.8653547524        6.9412744273        7.0234429709
 Si         7.0611570960        7.0917278867        2.2242226833
  O         5.9421800752        6.9332273135        3.3883465115
  O         7.0188791793        4.4683391622        6.0326484895
  O         4.6427541255        6.9431887785        5.7858287461
  O         1.4894640307        0.2664856839        2.7428434395
  O         2.8034068600        3.6357521579        0.1739199231
  O         1.8176608491        0.2455361485        5.5287135414
  O         1.5637887601        7.4276654033        1.9035435114
  O         3.2964935931        7.0234086633        3.7103158620
 Si         0.5013034574        7.3677848944        0.7018066844
 Si         5.3066208767        7.3294288130        7.2056655887
  O         3.5482486190        0.2533696559        0.9146625977
  O         7.4361357558        1.9826288040        6.1345689593
 Si        14.8762796337        7.1479502186        5.6070390761
  O        14.7891432172        3.7188469198        6.1079857444
  O         7.5275425085        3.5577191734        3.5596092233
  O        14.3741487882        6.1003616346        6.6933738055
  O        14.6257867512        5.9533872267        0.6672180084
  O         7.5993760731        4.1415937228        0.6225658147
 Si        14.5127023055        2.8900532898        4.7592258108
  O         8.0916395094        5.8827460346        2.4755742989
 Si         7.8124620065        5.6585959258        6.8127582231
  O        13.9764109532        3.6263216293        3.3920930924
  O         9.0567387212        6.0309694628        5.8733015790
 Si         8.0982592903        4.2959960891        2.1898280133
  O         9.5744970710        3.7140386771        2.1415885780
 Si        10.5112440519        3.3696699303        3.3938311738
  O        11.7429315827        2.8006879585        2.5785753638
 Si        13.2273758263        3.0204841214        2.0665589996
  O        13.7218576896        1.5051233671        1.7295993742
  O        10.6706825765        4.7226500976        4.2289154955
  O        10.0783692291        2.1650883938        4.3943484381
 Si        10.5684746594        5.8402775685        5.3792870600
  O        11.4991411051        5.3652753058        6.5908839916
  O        13.3945423322        1.8236604224        5.2804007409
  O        13.1396505781        3.9699333813        0.7436906757
 Si        10.2857546360        0.5808572145        4.0843602805
 Si        12.8903502319        0.2946913083        5.3127676310
  O        11.8784670081        0.1712133531        4.0408454712
 Si        14.5559324399        4.6766877637        7.3796459750
  O        11.0727573309        7.2640687704        4.8710824569
  O         9.5924385608        0.4104526250        2.6414576801
 Si        13.2248185719        0.0223931850        1.2999156807
 Si         4.7093685459        7.5068304565        4.2707881676
 Si         0.7029020100        9.4921640025        6.9586313417
 Si         4.0198875113        9.7564187810        0.5043542837
 Si         0.7682596130       14.0483018757        6.1232355163
 Si         2.3229227253       14.3587161974        1.5957554529
  O         4.4728973818        8.4067787938        1.2611372255
  O         2.9082131701       13.1101545849        2.3964650507
  O         1.3966517621       12.6336122721        5.7072764349
 Si         0.8901052933       11.4683742213        4.7278306667
  O         2.1469572335       11.0642688192        3.8038122570
 Si         3.3243727850       11.6524549946        2.8714500402
  O         4.9501922749        9.1000566526        4.2172996431
  O         4.7869433457       11.6466381138        3.5486619756
  O         5.5308041528       10.9913659971        5.8709264665
  O         3.4593518577       10.7633516116        1.5639119429
 Si         5.6614796927       10.5446071510        4.3422650685
  O         1.0736499927        8.0203191461        6.4451418661
  O         0.3348516985       10.2648944261        5.6060269876
  O         7.2019293980       10.4975210110        3.7873738804
  O         1.3991584739       14.0440629863        0.3347324193
 Si         5.3893476455       10.4551350803        7.3790633916
 Si        10.0801992062       14.8379700599        1.1638881110
  O        11.6567008836       14.7142754417        1.1600740656
  O        13.7237805472       13.7427819817        2.3084431447
  O        12.0117534318       11.7421311753        2.8931957362
  O         8.1045830497       10.9966964558        1.3237159343
  O        12.0563600579        9.9083387099        1.0792210099
 Si        10.5542435868       13.8098238640        6.4619507448
 Si        12.0569535309        8.5247399787        4.9895454878
 Si        13.5642511271       12.1973382191        2.6778449098
 Si        11.4383047879       10.2472629126        2.5712328065
  O        14.4630814636       11.9778015740        3.9657345894
  O        12.1523221935        9.1935293518        3.5407250321
 Si         8.2433056810       10.0354719751        2.6072341877
  O         9.4160568211       13.3884356315        0.9985742809
 Si        13.6625383911        9.9422330520        0.7376257278
  O        13.5532544357        8.0160898528        5.2881323522
  O         7.8464138595        8.5001167538        2.2993635256
  O         9.6779173246       14.5427654876        5.2858331011
  O        14.2273571064       14.2892483299        5.3687707801
  O        14.2114058705       11.2213725590        1.5623502637
  O        10.6529698654       12.2184252965        6.1184723270
  O        11.9699405832       14.6210864073        6.5314412359
  O         9.8474871256       10.1583464552        2.8890218104
  O        11.3952224142        9.5872245488        6.0260734681
 Si        10.8702820116       10.8197983994        6.9397173359
  O        14.2998342603        8.5065904304        1.0714675800
 Si         8.7644087909       12.0877904339        0.3379506964
 Si         2.5484697672        2.1076253255       11.0272429014
  O         2.8124671260        2.1415175644       12.6478317615
  O         3.8419281551        1.7293010439       10.0989203781
  O         5.2041021486        5.5451544714       10.9769215316
 Si         5.0965544223        2.6478282102        9.5863342298
 Si         5.5916900686        4.2936656790       11.9580136834
  O         2.7142128679        5.8629719803        9.9134807339
  O         4.4705860864        4.0365694429        9.0004802659
  O         1.3160833491        1.1604367274       10.6602942577
  O         6.1150758023        1.9871789191        8.5119863276
 Si         1.4398698908        4.8579814759        9.9242546865
  O         4.3246039530        4.1507378367       12.9492562646
  O         2.0666931435        3.5549377107       10.5837414205
  O         5.8602166459        3.0443797106       10.9652314144
 Si         3.6315025248        2.9725166343       13.7898385153
 Si         4.2797196616        5.5333174605        9.6166220233
  O         4.7225350388        6.5983278050        8.5056776256
  O         0.9136035421        4.6197365861        8.4145079215
  O         4.0461107751        7.1151799399       13.9512456732
  O         6.8676001845        4.3027710459       12.9095026294
  O         4.7923703767        2.0641339365       14.4591296095
  O         0.1641713287        5.2771747891       10.8239533454
  O         1.2967115969        7.3559399897       14.1463763122
 Si         7.4302734652        1.4375988242        7.6928149908
  O         0.5141550773        0.0764924840       12.7851572164
 Si        14.9540925865        0.3210469446       11.2556708417
 Si         8.1031864242        4.3753986077       13.9407054370
  O        14.1254462292        4.6214678014       13.2292704157
 Si        13.7260879838        4.8448734256       11.6643158552
  O        12.9568446111        3.5108413072       11.1573987873
  O        13.4728512375        0.9906806294       11.2375465846
 Si        12.2485519947        2.0522611777       11.3556372426
  O        11.1463084504        1.7522733015       10.1690358558
  O         9.3542767791        3.6693369928       10.1032364112
 Si        10.0600483534        2.5120046828        9.2087984450
  O         9.2416321970        3.2521622488       13.6232204414
 Si         9.9603405954        1.8122377419       13.4318234923
  O        11.4792642707        1.9912495025       12.8112891477
  O        12.7233112901        6.1080051343       11.5702476487
  O         8.8378152790        1.8121683139        8.4270840382
 Si         9.3168633440        5.2033236179        9.5933403911
  O         8.8403481858        6.1091847104       10.8243447241
 Si         8.9957122495        6.8266664082       12.2739823712
  O         8.6746132965        5.8630297477       13.5489056211
  O        10.8331937639        5.5457437905        9.0958722567
  O         8.3372151774        5.2701160702        8.2979731636
  O         9.2549062845        0.9113366088       12.3144229798
  O        10.9084295616        3.2162955517        8.0170535073
  O        12.4732269837        6.3674760182       14.1210495058
 Si        11.6469646486        4.6475836307        8.0083563742
  O        13.2190934348        4.3919404310        8.2561598778
 Si        12.0979124573        7.0956558638       12.6808892336
  O        10.5193461609        7.2671411496       12.4874157148
 Si        13.5447440209        5.2059453059       14.6275148284
  O         9.7578758361        1.0066380235       14.8411528302
  O         7.4323549864       -0.1964238882        7.8560252181
  O         5.9434259107       14.6299037542       14.7140304940
 Si         2.6892118398        7.9621159067       13.6159165629
  O         6.8576229518       10.6566742866        7.9253379332
  O         4.2658078390       11.2317152353        8.2565026902
  O         2.6491470194        8.3476498975       12.0597887129
  O         1.3322900574       10.5713722507       12.3137814193
 Si         2.7419749055       10.9866279758        8.7592581675
 Si         2.6171184264        9.9171832597       11.6300233900
  O         2.6399342915       10.0107411809       10.0371692732
 Si         5.2515517453       10.9467195740       12.9297003660
  O         3.8813558142       10.7367960152       12.1507735948
 Si         6.4926492854       13.5489901345       13.6411804151
  O         5.3705744372       12.5573295059       13.0525543812
  O         6.3553559591       10.1575390623       12.0588126448
  O         1.9904978884       12.3833835611        9.0927389282
 Si         0.5138475585       13.0609249680        9.0190026656
  O         5.2023032518       10.3315753538       14.4411803578
  O         2.7911157058        9.3512453858       14.4362092826
 Si         0.2753211186       14.0327614820       14.0706365389
  O         0.5546033969       14.0508703158        7.7234097500
  O         1.9875031364       10.1733474712        7.6003641505
  O         7.2664369297       14.2076499780       12.3961150083
  O         0.1684465880       12.5427508103       13.5503872059
 Si        -0.0116168132       11.0808606509       12.9880436056
  O         0.0823251299       13.8767448660       10.3318127939
  O         5.0464732656        8.8915866511        7.4317612794
  O         7.5135835384       12.5641257700       14.3635977768
  O        13.7869588254       14.5516385246       14.7126302162
  O         9.9126020421       11.4883527280       14.2354324222
 Si         8.5296731802       13.8535064572        8.7517810889
 Si        13.3606134999       10.5855245839        8.7217633663
  O         9.7500796284       13.1427680217       12.1559000106
  O         8.6729627281       14.5517558636       10.1838416776
  O        14.2949539312       11.8836847734        8.9211016383
  O        13.7983607684       11.0071995318       11.8156667128
 Si        12.5663219734       10.0185004655       11.5857322216
  O         9.5129936612       10.4163122356        7.7647403675
  O         8.7680229691       10.7528233413       12.0721603980
  O         8.0932289053        8.1715661390       12.1504039390
  O        14.2863013515        9.5064047600        7.9348411312
  O         8.0315674309        9.6840738984        9.9266685832
  O        11.3087711012       10.9073683002       12.0597130902
  O         8.2703783048       12.3078236554        9.1551335715
  O         9.9117606422       13.9556543862        7.9242545995
  O        12.7083951206        9.8175880205        9.9908078469
 Si         9.9827469762       11.5991357760       12.6220313483
  O        14.2071714529       10.1618871295       14.1260617860
  O        12.6444216546        8.6039281568       12.3916956430
  O        12.0785567377       11.1464870196        7.9347595649
 Si         8.2254523068       10.7498188993        8.7074521560
 Si         7.7885655974        9.6356949523       11.5359910397
 Si         8.7469528130       14.3725122450       11.7707112093
