216
14.932 14.932 14.932
Si     13.862305642300022     11.291339147600018     13.571747156599979
Si      0.748723822500016     13.762942687300022     13.190935217399993
O      14.514949297800014     12.666347997400022     13.083340208499999
Si      1.161387937700011     14.543778157800016      1.259950162300001
O       1.823842872200011     13.178091940000009      1.804057713000009
Si      2.743643104400019     11.880635814500005      1.669403523000002
O       0.665842171400006     14.411047523600020     14.663098742000011
O       2.237826821100011     13.168547324200016     12.996724292900000
O       0.498722851600012     14.817411683200008     12.010347059599999
O      13.341409510700009     11.425608550400023      0.163929452499997
O      12.603549159100018     10.916423973100006     12.656336578699992
Si     12.692319513600008     10.954195432100008      1.568483984700000
O       2.044356045300018      0.953387078600005      1.367618784200003
O       0.074234034400005     10.172195545800005     13.330782322500001
Si     14.646560233700013      1.105319644000017     11.332227410899996
O      13.106280721200013      1.305444178100017      1.392998053600005
O       2.070808564600013     10.926516123100004      0.559249804399995
O      14.922141765800003     14.736650551100007      2.305558150200002
O      13.840898970300005     10.197129926100018      2.375901156500012
O      11.443591886400018      9.941200762600008      1.292283853200011
Si     11.185705150900009     10.217831376000017     12.371509488499989
Si     13.720440934900013      0.740888985100009      2.754464142699997
Si      2.777946753000015      9.610446671300018     14.906946968800002
O      12.280265937100008     12.191100022000011      2.532721060200009
O       3.474616286300007      1.881025189400019     11.165304077899991
O      13.539258606100013      1.632932413200020     12.340891978099988
Si      3.722827991000019     13.088525744700005     12.365477445700000
O       3.557149182400027     10.021285724900014     13.583826053299999
O      11.023109293000005      1.395496434600018     11.594637456399990
O       3.897439032300013     11.677128151400003     11.595709981399995
Si      3.529418967300030      1.420913858700015      0.974793212099998
O      10.280422770000012     11.354115571000010     11.664204985599998
Si      3.939861099800018     10.130065757799994     12.040054421000002
O       5.992699328700009      0.978221109600018     11.087739946399996
O       3.973265819200019     14.238623866600005     11.268158567999990
O       4.148147183100027     12.416154222300003      1.127040784199998
O       4.795748596200021     13.174523103700015     13.593097648499997
Si      4.839606272999990     13.565492540100015      0.243416220899994
O       7.706138307800018     14.591037505700003     12.646780080899987
O       8.540265362400010     13.588939316600005     14.825496767799999
Si      7.624675602600019     12.778489989299993      0.966092100699990
O       6.294233612100016     13.667509866400007      0.890776368900002
Si      8.133432194400015      0.074041084900007     14.128507541399992
O       7.125450978200005     11.272103094800020      0.720646167400000
O       4.209221584200009      0.090880803100001      0.392363107799999
Si      7.312639699900013      0.045695042800002     11.129807092999997
O       7.292440518900020     11.250747398200010     11.444263842900000
Si      6.981199194200018      9.820683562400010     12.074912476099996
Si      7.461570681500022      9.814802967900008      0.133785719299996
O       9.293138391500001      1.226753269800009     14.325971227399995
O       7.628525274000017     10.012318291100012     13.507837316799998
O       5.411286549300031      9.516943426599997     11.918985068000003
O       7.042195312800002      1.134178326800014     14.824341235300002
Si      4.465470434500009      0.703483386700021     10.644087475299994
O       8.385751304399999     12.820036378800003      2.377590463300002
O      10.441996163200024     13.905860365300002     10.752758661000005
O       8.608444285900012      0.800513695500004     10.513559203800000
O      10.538931963800000      9.693521868600012     13.749309835500002
Si     10.210288835200011     12.340896565600012     10.377711647999984
O       6.881276817700004     13.619474178600017     10.345678220800000
O       8.865432329100020      9.439113986800006      0.812676644699998
Si     10.219507648000011      0.564670220400005     10.458115522400004
O      11.780494396000023      2.054768996300008     14.153195389200008
Si      2.234374538100008      2.639350751900002     10.420038201000001
O       0.818299882300002      2.220362639600013     11.008823234999980
O       2.904137948700013      9.260823493699998     11.179669612999984
Si     12.057863995300011      2.188607157100019     12.564387356899983
O       1.649350014700024      8.517772115000007     14.649716180100004
O      14.755440939100025      7.859161592600019      2.137396475900007
O      14.083018607100007      8.020402977800021     14.427294451499991
Si     12.462309765600036      2.530379100400011      0.597303239199999
O       1.313548155900021      3.811495194399999     14.174088083699990
O       0.904758100900008      3.876735560199997      1.796781193600000
O      13.691119643200009      3.549805130400004      0.225752405599992
Si      0.218453090700013      4.228905525700011      0.378938419700004
O      12.688006455799998      6.617503923200000      1.226799918799982
Si     14.157759594200003      7.100525271800000      0.840704710899995
Si      0.410978608600018      8.629614719700008     13.628375771500002
O       0.092446178300013      5.836510759100011      0.385896028199996
O       0.903171966700005      7.855600175399995     12.309750601599982
Si      1.988190046800033      7.928713898299995     11.102562634599996
O      12.131758960200015      3.779151046600020     12.256391439600003
O      11.268643852600022      3.058950327300009      1.577657774199995
O      11.622339151100016      6.299822889400009     11.918886501799985
Si      2.939222246500010      3.970815622900009     14.275724770700002
O       2.977417972200020      6.628750294500009     11.172946889900006
O       2.408571492400010      4.216559110200006     10.600194705799996
O      11.358424213700006      8.923042077400012     11.418836631000005
Si     11.209033799800000      6.210263928600013      0.759333079299995
Si     11.203451088300023      4.986202387200001     12.757584619299994
O       2.667652416100012      5.540697812300006      2.951139565900015
Si     11.137915699600008      7.422403236200006     10.845991553399983
O      11.278877094700022      5.292483296200023     14.352876384299993
O       3.560499811200025      2.541759360700009     14.735596689800001
O       3.317206728100010      4.961582611200005      0.546702099500004
Si     11.191100103000023      4.136123002100006      2.804569955200004
O       4.150278531400001      1.958945297600015      2.367921951800001
O       3.556277423200028      4.616432533000020     12.917800267499997
Si      8.127040085499992      6.994452914000009     11.406791553099993
Si      3.960216594299993      5.422675962100007      1.937545056800001
Si      6.601738972100012      4.667019977800012     10.461150693599983
O       9.574731200400006      7.035833057500020     10.682554740200001
O       9.731846808300020      4.369590705100015     12.491307647700005
Si      3.520444676900011      5.097059321599999     11.356086470600008
O       5.809792268300009      8.854885578200012      2.636945214700005
O       6.305386968300025      8.679621496700012      0.228865995500001
O       8.531906762200018      2.130264727200022      1.850005813500014
O       8.048954213800009      3.694718577400022     14.406608930099996
O       3.806670714600010      8.950617684900003      0.984608506799993
Si      5.189645469900010      8.247622209700022      1.310571949999988
O       4.976017231200025      4.377147810800007      2.624517036799997
O       8.044082173800003      6.180965878299998     12.848302143699994
O       4.880489528199993      6.692958220000007      1.557509565900013
O       7.209477766600008      3.958620554500001     11.817332081499998
O       7.126279614600014      6.199187383500002     10.430460058199987
Si      8.250748782300017      2.214866759200017      0.222120554000002
O      10.467029268900021      7.578288663300017      0.394294966799999
O       7.712690756200002      8.524230264100012     11.497473174299991
O       4.977833962100007      4.788998206100016     10.670235447299987
Si     10.374150141100010      9.182146577000019      0.334033938099992
O      10.541499403400028      5.445156807300014      2.046137417500006
Si      8.208849426600008      4.527240295400001     12.970112449800002
O       0.982326213200012     14.399015759500005      5.436188529799992
Si      2.112432172100006     10.501994956200004      4.258778065899994
O       1.658609154900004     11.933381683700008      4.784495821999998
Si     14.361867668400018     11.933814129300005      8.118487854999980
O      13.941635081000006     13.255146671900000      8.943194024499991
Si     13.967991932100007     14.839798954000013      8.603028726199984
O      13.008033793700010     11.412661693500013      7.430164611300022
O      14.186390882800012     12.672287906300003      4.372155477200009
O       2.810643437700028      0.725860702900015      6.860706859100006
O       0.482508122000004      0.148707264700011      7.939547239900004
Si      1.226332183300006      0.567629184600008      6.581437165899985
O      12.777933246200011      0.400470690900015      7.603685139500004
O       0.330279879699997     12.342572516000015      6.865305217300012
Si      0.511225807500014     12.856208825500008      5.355156182400001
O       0.162513954900001     10.776684058000004      9.006920107499990
Si     12.741077805500000     13.094797506900008      3.802009634799997
Si     11.507007191100008     11.171422824700002      7.938815773999980
O       3.067762390500005      9.848469777700004      5.369713377799989
O      11.772902993000002     12.914390316600009      5.045903932300000
O      13.854946494600005      0.705553804400011      9.988463048599993
O      12.680146710200011     14.667928826200013      3.457625368700004
O      11.435555284500024      9.589929833900015      8.197430302400001
O       2.967941988300018     10.930131270200011      2.954081487200006
O      11.360584424000006     11.924504979000019      9.346972709899983
O      14.188783498200003      1.878093381900017      3.789264987799999
Si     11.189273208900014      0.764424085900012      7.456622666200008
O       0.575012585400006      1.958435088600017      6.116013218099997
O       0.845680273000025      9.515173674800014      3.958960824299993
Si      3.514047463500028      1.628959665700010      7.995517733700011
O      10.443106716300017     11.751224559999999      6.865522160499989
O      10.465117199100003     14.348399538400020      6.935936922000000
O      10.686321676000023      1.050666581900011      8.975958738299983
Si     10.469849347100013     13.083658687000000      5.935789286299998
O       7.695502962400004     14.929231764800011      3.544661464200000
O       4.388809683200019      0.723977560400011      9.018546668499990
Si      7.242186026500010     10.847389629600009      5.286670659800002
Si      6.138344318200022     10.166537803100013      7.978406389299994
O       6.963581019200022     11.009324097500020      6.858534692100005
O       7.046508412000004     12.271131787000009      4.529638703300012
O       9.288387672200010     13.327562103700018      4.885380384499997
Si      8.071865578300017     13.370158216700020      3.854491144800011
O       6.214306426000003     11.253031966999997      9.178925126599985
O       8.709067162099998     10.184103085200004      4.953650420700002
Si      7.933030471400008      1.600971642300024      3.313331506799986
O       8.807172629500011     12.100065602900013      9.594966873399986
O       6.152376508600033      9.685168909200002      4.953709237300005
O       4.565100374600007      9.850195448800019      7.606158826999997
Si      7.266864836300026     12.072816711600010     10.083296720299995
O       1.817889074400012      9.346790164000005      7.607422211900004
Si      3.252548809300012      9.210206747400015      6.842087416800009
Si      0.561075189900005      9.220064454000017      8.652455422099997
Si      1.307658953500020      4.682274855200002      3.138768809099995
O       1.091776823100010      8.188860299500000      9.780003491599995
O       2.319223791300029      2.298152083600002      8.852117890899997
O       1.404014251600021      3.471311362600017      4.210142296999994
O      11.941943705700009      7.366538642900006      9.427088019199999
Si      0.079143179300003      2.776587785900007      4.850906438000001
O      14.030384255900001      8.606734835999994      8.253761256199997
O      13.276162168300012      8.607039258300002      4.364496768200013
Si     13.574423439400011      5.102388082700013      4.220464940099998
Si     12.433026261399997      8.307196382000003      8.180773663900002
O      12.198886163200022      7.691330696600022      6.710893647500001
Si     12.129471600500022      7.719561883100002      5.110777125699993
O      14.001810772000026      3.970225855300010      5.297742996099988
O      12.524680941600009      6.205685459300005      4.708631782899998
O       0.068220424600024      5.625110129199993      3.625672464999990
Si     14.417195564600009      8.996240304500002      3.250548461099995
O      12.771157257700006      4.370272605300001      3.041153240500010
Si      9.036279388300013      8.575773441200013      5.019178573100007
O       4.640214026500033      2.978412798399995      4.849856537300002
O       9.021855082300011      3.791297937300008      6.705667322399987
O       7.880713970400011      7.931983134800009      4.040297689200008
O       4.235323153800027      5.212511702800017      6.108402077800011
O       6.521346583600030      4.114311485600009      6.535130843600006
O       3.554761923000026      7.636092649300003      6.605375445300012
Si      6.300586381100010      8.354860832500016      4.053409397299998
O       8.611780358600022      8.040944990400007      6.481278056999990
O       7.197509285800019      3.972061193700009      9.078446667799987
Si      4.749425725400012      6.735882691200007      6.025545302899991
Si      7.742203119500004      4.452442804300008      7.560997420500015
O      10.598175253700013      8.193133315700006      4.702321303799993
O      10.852023659500009      1.966493563300019      6.375888322100012
O       4.400326874300010      2.805810251600005      7.367769970000015
O       8.120087348100014      6.019711289099997      7.853403487899995
Si      9.806346839900009      2.929649136900000      5.523231476299984
O       6.967368534500007      8.777090083700003      8.344738674899986
Si      5.053775342800016      2.911654043199996      3.294781738399999
Si      7.466000000000000      7.466000000000000      7.466000000000000
O       8.791401167500013      2.045651235800007      4.617312855500014
Si      4.963999064600003      3.767785323199996      6.215878264400013
O       6.047808148500002      6.951318607100013      6.928753387800004
O      10.533344744300017      3.791393497300014      4.282666600600006
O       5.287840347700024      7.191230579799997      4.552027743500000
O       6.547084479600005      2.377612559200005      3.363385784500001
