216
15.033 15.033 15.033
  O         2.0446336407        3.1201135537        4.7798910952
 Si         3.4991982389        2.7552394813        4.2664781459
  O         3.4307397462        1.5643753655        3.2067642093
  O         4.0787998058        4.0903760736        3.5951330860
  O         4.3246806467        2.1814648458        5.4886200010
 Si         5.1173432148        4.9771371988        2.7710446461
  O         5.0015474238        4.6955513076        1.1803369072
  O         1.0752753443        0.7871856009        2.2796028601
  O         6.7272076665        1.4017477186        6.1076094253
  O         4.9360169388        6.5818692838        2.9740776079
  O         6.5942476223        4.6153508249        3.2884673651
 Si         5.3700966726        2.0301682539        6.6751124310
  O         1.5642252947        5.7144177747        1.6513490540
 Si         6.6782457949        6.7992155742        6.9329077950
  O         6.5743106756        5.8701088623        5.6265928438
 Si         2.5581116350        0.3262064610        2.6801532306
 Si         0.5566911011        3.6231348668        4.5707926752
  O         5.5564557827        1.3937683842        0.7134520913
  O         5.6398343997        7.1237928946        0.5429498655
 Si         0.5098480296        6.1497705123        2.7983448203
 Si         4.4693377882        0.2766524041        0.2522987396
  O         5.4790010233        3.5196411361        7.2845345800
 Si         6.9687878818        2.0237302029        0.2220677231
  O         3.3377843058       -0.0785276894        1.3419795338
  O         0.5412964928        5.0926393520        3.9765518122
  O         3.2857356715        7.4398523957        6.6558731858
 Si         4.8337084778        5.8225201894        0.0119505693
 Si        14.9060991391        1.8502245879        2.1867014829
  O        14.7955014783        2.6628034672        3.5602194024
  O        15.1177522943        2.8250267281        0.9417670281
 Si         7.4791763060        5.1004882406        4.5493084182
 Si         7.7112586934        0.2124382352        5.6630956699
  O        14.9481379305        3.6060445658        6.0301284562
  O        15.0303274590        1.0245628707        6.5878234147
  O         7.9878171570        2.4170832604        1.4097263171
  O        12.7651618703        2.2601543531        6.3348567245
 Si        14.2650953634        2.4088047769        6.8451697728
  O         8.0594076986        3.7714355825        5.2482972392
  O         9.8586277666        4.2274913932        0.7790697177
  O         8.5450643394        6.1875786170        3.9918689135
  O         8.6915050927        1.0986216566        4.6985452162
 Si         9.4761272571        2.9792544725        1.7357221651
  O        10.3283418491        2.7296346588        5.7888276712
 Si         9.1399860748        2.6731854501        4.7422255552
  O        10.5694376404        1.8099152799        1.5745089903
  O         9.5475466630        3.2911144178        3.3060959591
  O         9.0073357743        6.5749065385        1.4124787729
 Si        11.3834181965        2.7568123122        6.9655962273
  O        14.1510919133        6.5603055759        2.0270441497
 Si        10.3912110871        0.2981743426        1.1024821772
  O        13.5282761012        1.0895089652        1.9449335302
 Si         9.7346701292        5.7570630028        0.2541003632
 Si         8.6537132432        7.2729876242        2.7975756553
  O         8.2153880737        7.1195013444        7.2675776397
  O        11.5072661219        4.2827201275        7.4424316540
  O         0.4770471500        7.6016407473        3.5986587302
 Si         5.6535128976        7.7291638872        2.0515553303
 Si         0.6454715081       10.0044351659        0.8674341291
  O         1.3342031082       13.9342310755        6.1927602575
  O         2.4252061055       14.1651887289        3.7559032168
 Si         4.3037189297        8.7183486625        6.5621818238
  O         4.1550657417        9.7096668436        5.3073343632
  O         4.6964559346        9.0141792123        2.0374124542
 Si         4.0880195244       11.1831229962        4.6358117290
  O         5.5463158599       11.8841093087        4.6070331725
 Si         3.7228597370       10.2752827075        1.7612326817
 Si         1.8040865318       13.1475196406        4.8611258639
  O         3.5256808044       11.0395436902        3.1460258777
  O         2.2173651458        9.9325396862        1.2516731928
  O         2.9710322636       12.1328097087        5.3248414309
 Si         7.0786018555       12.3704371991        4.5290903879
  O         4.5313449478       11.2745429716        0.7877124171
  O         5.8166240141        8.1415883701        6.6569864187
  O         7.1857960429        7.9877920168        2.5831036850
  O         0.4191795451       12.4495911435        4.3052408181
  O         7.0582413143       13.9492383007        4.9463262345
  O         5.0810363266       13.8292541361       -0.0024071756
  O        10.4924995163       11.0361012822        5.2653555070
 Si        11.2212482473       11.5328110157        3.9298121436
  O        11.6855795208       14.4142269137        1.3301533134
  O        15.1171452781       11.5087353330        0.7818675349
  O         9.2548657840       11.9658102192        7.4311842406
  O         8.3876961411       14.5604426985        6.9581372470
 Si        14.9299396197       14.4573204456        6.7119998138
 Si        13.2244008036       14.5692102933        1.7523694798
  O        11.2722372202       10.4011197962        2.8098701226
 Si        14.1654943409        8.0439558654        2.7543333612
  O         9.1696624424       14.5932109582        1.8881863850
  O        14.1670398605       13.9359571801        0.6229582932
  O         9.4730458921        9.3241079724        6.8920696964
  O        10.3359218673       12.6874623261        3.2088741164
  O        12.6862342672        8.2977389123        3.3607921708
  O        11.5760743319        8.6058734516        1.0065505039
  O         7.9143443561       11.2721731387        5.4124935535
 Si         9.0484945760       13.0055193105        2.2527495831
  O        14.6383372543        9.3060114741        1.8851153594
  O        13.7916285247       13.8573584755        5.7305753999
 Si         9.2565559501       10.8396676173        6.2689249359
  O         9.9370781163        8.2196115173        3.1292996881
  O        13.5474316805       13.8596110903        3.1314571530
  O         7.7508194463       12.4533617247        3.0516120761
 Si        13.9008539967       12.9582342416        4.3910257823
  O        12.7498197002       11.8341598394        4.3835997595
 Si        11.3449077820        8.8290366782        2.5815887840
  O         8.9234914412       12.3689703846        0.7763854784
  O         1.5776785338        2.5108977996        9.4662100746
  O         1.2539802663        1.5650051308       13.9400966768
  O         5.3122899808        3.9943089503        9.7693550202
 Si         6.3602065048        4.1733959485       13.1040311410
 Si         2.0468918382        1.1333269134       10.1907438898
  O         2.5130766715        1.5718234103       11.6706799985
 Si         2.4093504099        0.8226952961       13.0880396211
  O         5.5771704876        3.1355820087       12.1559484488
 Si         5.9739980649        2.8067128337       10.6348695964
  O         5.4746058549        1.3324494703       10.2613358563
  O         5.4009413206        5.3335246219       13.6362726375
  O         3.7686512870        0.8595474596       13.9470783201
 Si         5.0541620050        4.6799924098        8.3315289113
  O         6.8870675007        3.3739911331       14.3910595269
  O         0.7911081772        6.6560991485       14.3280579899
 Si         4.7903425228        0.3227705054        9.2191061189
 Si         2.7032995465        6.6618228743        7.9770565086
  O         3.2151237483        0.3134766037        9.4735515581
 Si         0.4910933219        2.9075294198       14.4226570271
  O         3.5292838188        5.2537402557        8.1503959850
  O         1.0988145567        6.4201591185        7.9006680169
  O         1.4875989708        4.1865432630       14.4057866643
  O         6.0297155074        5.9536489239        8.1464712773
  O         4.9288527264        0.9342010591        7.7508584884
  O         3.2770979771        6.1097393006       14.8031374775
 Si         0.1451881895        3.2584738285        9.6301246533
  O         0.1511269371        4.8689544434        9.7027024882
 Si         1.7663988832        5.6408352026       15.0624254997
  O         7.5228876569        4.8507081703       12.2079404616
  O         7.5779074876        2.7361649739       10.4953947895
  O        14.2455445893        2.8175338104        8.3936282310
 Si        14.8195493462        6.2161015050        8.8512035682
  O         7.5817119220        0.8680015871       14.3342209709
  O        11.0406690288        1.7110424387        8.1431637470
  O        13.3961878279        6.0319907916        8.0717147370
  O        14.5619340155        2.6602545910       10.9776448158
  O        14.1780070606        3.0572199946       13.5349957190
 Si         8.9702491842        2.0267801710       10.8274647397
  O        10.1838102446        5.2502927887       11.9908689990
  O        10.1064232384        3.1303495347       10.5664215406
 Si         8.7610334846        5.8641800445       12.4198381643
  O         9.2339830688        0.8538345795        9.7732326429
  O        13.0095203898        1.0304001908       12.2877253581
 Si        13.4684002135        2.5948222622       12.1539324496
 Si        11.0623124227        4.3488081987       10.9939795198
  O        11.5063294881        5.3230699515        9.7713039116
  O        12.3099102557        3.6646618775       11.7621139192
  O         9.0817356373        1.3306869336       12.2898505305
 Si        11.8061962945        5.6708493419        8.1914080438
 Si        10.6497009353        0.4788341543        9.1000513500
  O         8.7806527957        6.0253840510       14.0186289004
  O        10.1738052347        0.4679543154       14.5468687207
 Si         8.8979873893        0.3776419223       13.5743194325
  O         8.5368054792        7.2181562097       11.5790972455
  O        10.8834051721        6.8270868262        7.4492133219
  O        14.6448834421        7.5237450198        9.7846309459
  O        11.7423418768        0.2448716903       10.2439967682
  O        11.1860170480        6.3441444493       14.8785469902
  O         0.8560782237       15.1060233950       10.1763326833
  O         2.9689946523        7.6719145914        9.2338702761
  O         2.1173776494       14.3207711502       12.6778203163
  O         5.4126423064       13.8767842937        9.3959890474
 Si         6.5372218638       11.6786057317       12.6261301361
 Si         3.5478212635        9.1853944804        9.3229798496
  O         6.3559560008       10.2664501325       11.9066289035
  O         4.9193463479        9.0911547401       10.1654400635
 Si         6.5784460013       12.8637163601        9.8886844662
 Si         6.2597312781        9.9482318625       10.3476087870
  O         2.4866278957       10.2570438888        9.8801735857
  O         1.8817831106       11.6659683563       11.9782219505
 Si         1.8131364544       12.8046703323       13.1200098652
 Si         1.2744989241       11.0608768158       10.5957933491
  O         5.1619385888       11.9077664543       13.3819528464
  O         6.1899699140       11.3335517427        9.4832446891
  O         6.7328977985       12.8399336674       11.5034470724
  O         2.8204654246       12.4573962122       14.3269217100
  O         0.7781898180       12.3780893541        9.7877919176
  O         0.3010270508       12.8420922334       13.6130263684
 Si         4.3960692527       12.3950478182       14.6826798165
  O         3.9794565327        9.6420309012        7.8386480588
  O         0.4739496414        9.2556426229       14.4817697804
  O         0.0191991648       10.0294829125       10.7229222602
 Si         0.0220628457       13.8099456258        9.7383491454
  O         7.7738521516       11.5141030062       13.6326333971
 Si        12.6430216907       14.7145021592       11.4443599278
  O         8.6895127603       13.8344077780       13.3879845444
  O         7.9774748279       13.3049657321        9.2305010737
  O        11.3570501768        8.6140638584       13.3878346126
 Si         9.5986016080        7.8548346594        7.6570104578
 Si         8.9861112820       13.4568555010        7.9802896378
 Si        14.9105596530        7.8784244860       13.8937657855
 Si        11.8396172541       12.1980541088       13.1374223420
 Si        14.3832647630       12.5665630785       14.8544499200
  O         7.6151425338        9.1515073775       10.0219781246
 Si        11.5137230959        9.4167246293       11.9791064451
  O        11.8964241242       13.6311013262       12.3873058583
  O        14.5680005314       14.0162111132        8.2140730702
  O        14.8750329401        7.9828742262       12.3030347290
  O        11.9831919418       10.9518738711       12.1317875588
  O        13.8478255688       13.8549164090       10.8011082056
  O        12.6864659789        8.7667257194       11.0477605494
  O        12.9863739465       12.0546816787       14.2595459618
  O        10.0235620380        9.3899841480       11.3444757684
 Si         8.9484355949       12.4511246536       14.1974416725
  O        13.4526567916        7.5995990666       14.4857271219
 Si        11.8820620658        7.7916541688       14.6795864599
  O        10.4257018374       11.9769669453       13.8459443284
  O         9.7040991627        7.9884028368        9.2523340855
 Si         8.9494036957        8.4373311859       10.5932407989
  O        10.4146938334       14.0905658407        8.3798736174
 Si        14.3051398067        8.5992136285       10.9359916465
