216
14.827 14.827 14.827
  O         4.0530073615        5.7660170680        2.8046810498
 Si         4.7808605022        2.2159266946        5.6973007680
  O         4.6970129084        3.1322626368        2.8795888303
  O         2.3093682987        5.0928573213        5.2533930281
 Si         1.3002150252        6.0179313143        4.4421221467
 Si         4.4669328700        4.4446979262        2.0132632550
  O         2.5683436029        1.1450044778        2.6437011900
  O         4.4540682763        3.7768408514        5.5310315039
  O         6.3508987695        2.0613967652        5.7640042639
 Si         3.4561035336        4.7630147128        6.3050654487
  O         5.7448043004        4.8611242728        1.0762486610
 Si         1.0469424629        1.0796380644        2.1888198433
  O         4.2836371472        1.3330946254        4.4605157597
 Si         4.0551082403        1.6374250656        2.9086305992
  O         4.8643188956        0.8174859271        1.7938651914
 Si         6.1206801043        1.0075657836        0.8145738702
  O         3.1260904014        3.9520388173        1.2321247131
  O         0.5706951226        4.5428152581        0.9807832962
  O         2.4693896209        6.3581088539        0.7556060826
  O         6.7558277965        6.2599515236        5.6100188801
  O         1.8957388367        7.0050728130        3.2996131316
  O         0.9824768985        0.5777836235        0.6673535067
  O         6.6756064098        2.5148561578        0.8913947342
 Si         5.8314745972        6.5132974374        6.9305939557
 Si         2.0597431324        4.8229112408        0.3933684272
 Si         3.0470207142        6.8788399774        2.1936992964
  O         0.3289753464        5.0226009817        3.6245981909
  O         4.2822968947        6.1043714104        6.6717270219
  O         0.5821273282        2.5523130746        2.5552744008
  O         0.7363577291        6.9849272020        5.5986800882
  O         4.1119834114        1.7243105162        7.0763130951
  O         7.2495709090        0.0768992256        1.4663780802
  O         0.0799802921        0.0721673082        2.9735403600
 Si        14.8001224491        4.0059037481        2.4198833864
 Si         7.8121936382        2.0760045496        5.1566998194
  O         7.9942346084        1.4134932991        3.7087665957
  O         8.4005109127        3.5402708406        4.9372914862
  O         9.4806965907        5.6777920099        4.7804556710
  O        10.8586796791        3.5330726712        5.9338776198
 Si        11.7092654575        4.0305925310        2.2559937380
 Si         9.8937992788        4.1024574330        4.7516549773
  O        10.6261382595        3.6197401099        3.3812574599
  O        13.2421485890        3.7074660625        2.5576801018
  O        11.6306704942        5.6028862645        2.2116082950
 Si         8.1663777472        6.6556031642        4.8872325909
  O        11.4482718283        3.3640479512        0.8144026514
  O        12.5165487663        1.3894655333        6.1803017035
  O         8.6497493115        1.4063342535        6.3294827954
 Si        11.5536751256        2.4635558590        6.9480903049
  O         7.7432345531        7.0927700787        3.3772894907
 Si        11.4556809850        7.1566468280        2.0344226721
  O        11.9475097390        7.5767026491        0.5712627643
  O         9.8696271635        7.3496824115        1.9839913556
  O         6.8459383296       10.2136844596        6.6026043959
  O         2.9659374186       12.1736762115        1.1423085852
  O         4.0456950517       13.8435142582        5.0097908894
  O         4.9356218228       10.5395741707        1.6428047163
  O         3.8665802580        8.2218333264        1.9869553068
 Si         2.6732451942       13.2543392945        5.5670919410
 Si         3.1892383204       10.4134581356        4.9489772138
 Si         3.9724256645       11.6551022494        2.2946191434
 Si         6.1484163998       10.6985828684        5.2618763911
  O         3.0500841195       10.9712259205        3.4388675851
  O         4.9394053334       12.7638620138        2.8823673532
  O         4.7278551730        9.9070242620        5.1081984815
  O         2.1388858523        9.2306486940        5.1927474964
 Si         0.7673841279        8.5867369964        5.7702170328
  O         2.8778646614       11.6812594881        5.9265353802
 Si         5.3924196857       13.3143524577        4.3263921271
  O         5.8528903132       12.2588507111        5.4368203287
  O         1.4848157699       13.4155253100        4.5167842611
  O         6.6864889860       14.1722514438        3.9642308966
  O         0.8310811855       10.7145309658        1.2394577249
 Si         4.3005423698        9.2815298867        0.8681798147
  O         2.2245699139       14.1751466570        6.7657807588
  O         7.0873821810       10.6319401163        3.9507680149
 Si         2.0872466703       11.0678836632        0.3123062790
  O         2.9663381665        9.7340293706        0.0910344507
  O         0.7424414690        8.9824030927        7.3355771830
 Si         0.0063753564       13.6489466027        3.9700350040
  O         9.3940667690       11.6961325300        2.5546069431
  O        14.4909851889       12.2772304906        3.2065523674
  O        14.4936155123       14.8261196545        7.4144356007
 Si         7.7843155866       14.8366743070        2.9809766914
  O        14.3247660682        8.9920517299        4.8589563803
  O         7.4954441014        7.4241001488        0.6479155405
 Si        13.2006353165       14.7605462443        6.4409918724
  O         8.4033670754        9.3854373209        2.2290477497
  O        11.2818327280       11.6955370263        6.1830578581
 Si        10.7882385360       10.2920066319        5.5871499906
 Si         8.3315135739        7.7887971647        2.0221840202
 Si         8.5949740522       10.5307403302        3.3485748881
 Si         9.4184078948        8.2455446887        7.2466334362
 Si         9.8868697697       13.0628466368        1.8288051979
 Si        14.3365519388       11.2437577298        1.9813893858
  O         9.2315384911       14.1661440087        2.8036865072
 Si        13.0969749994        9.1274509571        3.8195364477
  O        11.4756630128       13.4208826912        1.5674426721
  O        10.5519816784        9.3076975642        6.8408382579
  O        13.7410518873       14.0072659745        5.1078754076
  O         9.3003710165       13.0120507773        0.3234814802
  O         8.7271083710        7.8264704594        5.8495750387
  O        12.3529998571        7.8228309301        3.2047086627
  O        12.0275622182       13.9214212399        7.1684743146
 Si        12.5444652707       13.1177507574        0.3275156503
  O        11.9577217639        9.8823741915        4.6119800283
  O        13.5878609313        9.9603065808        2.5497882012
  O        13.5091968391       11.9530383183        0.8197077619
  O         9.4640633134       10.2994671498        4.6868430493
  O         3.5404371365        2.5579343897       12.1136573894
  O         4.4432562760        5.0843169196       12.1072139514
 Si         3.7753441676        3.8974228431       12.9524173915
  O         1.6284246952        1.2311121236       11.1178387050
 Si         3.2260536500        1.5131718756       10.9330610881
  O         3.5424453285        2.3041219252        9.5667347069
  O         1.5813626550        5.7909214431       10.3717618131
  O         4.8812446096        3.4434612772       14.0156964277
  O         6.1855166439        6.4101450110       10.5363143292
 Si         5.1063793498        6.5029871143       11.7458285946
  O         6.3419865291        5.5099326056        8.0634429322
  O         2.3966813477        4.4468619643       13.6749344540
 Si         3.0104423229        2.3818813141        8.0582242760
 Si         0.3690604239        2.0052236174       11.7922944126
 Si         6.6743270851        0.7523417385       12.7210724435
  O         6.4347485239        3.8707342553       10.0503708063
  O         6.5013587034        1.6460038545       11.3536303598
  O         0.5706483920        3.6066784680       11.5326210696
  O         5.7679591626        0.7431138080       14.0844631417
  O         1.6540914888        1.4889548081        8.0687201253
 Si         6.8875244103        5.3310147930        9.5464606812
 Si         0.2018814883        4.9758371335       10.7344050571
  O         6.0146381886        7.0041879999       13.0210057845
 Si         0.1906497739        0.1551353726       14.1640927619
  O         2.8185328081        3.9296567689        7.5680973491
 Si         2.1756155479        7.2567711346       10.8864440623
  O         4.1040638958        0.1377517487       10.9501637360
  O         0.1683353254        1.5599332973       13.3422272082
  O         3.7814038282        7.3307609889       11.2008526264
 Si         6.2334645374        3.7656591668       14.8131558665
 Si         7.4069105807        2.6530780160       10.4322796522
  O         7.4184033609        4.0209355526       13.7521970837
  O        14.1718683938        6.0240892892       11.6142186432
  O        12.5228925952        3.2980314224        7.9204014229
  O         8.0805504088        2.1313650257        9.0551717061
  O        13.7595207287        1.5570693778       11.1925888288
  O         8.0765501217        1.4118034645       13.2680827909
  O         8.5545648221        3.2046297031       11.4506452763
  O        12.3443209289        2.8035555990       13.1032233001
 Si        12.2977945896        2.0968532761       11.6346410156
  O        13.9889508843        4.6116927714        9.5464666431
  O         8.4990425103        5.3551950957        9.3962172141
  O        11.9403281847        3.2091130207       10.5465230163
 Si         8.5021870647        2.9943674452       13.0541043584
 Si         9.9500931248        6.0760224658        9.3695655588
  O        11.2813571354        5.1940468956        9.2226458795
 Si        12.4569473704        4.1008763249        9.3096787952
 Si        11.4198748323        3.7286910782       14.0705618641
  O        11.8542570721        5.2831781392       13.9229138822
  O         9.9035407206        3.3893326565       13.6630227227
 Si        12.2372613169        6.8636009388       13.9935336424
  O        11.2081034059        0.9098171479       11.6150945294
 Si         8.8908923592        1.2937322084        7.9111996213
  O         9.9620419566        6.8301505232       10.7890746980
  O        10.0415966761        7.0165185158        8.0610646941
  O        13.8443879190        7.0808519425       13.8427417981
  O        10.4626955332        1.7259706949        7.9248637098
 Si        14.6005644792        7.3435069171       12.4531646941
  O         1.3821162305        7.4917990114       12.3023789421
 Si         1.2168281814       14.7757310228        7.8442620580
 Si         6.7840656795        9.3361505703        7.9472975295
 Si         6.6802556378        8.0053214459       14.1490801852
  O         6.2695427716       14.0933272804       12.1903997275
  O         1.1363599393       14.0110480393       13.2645386356
  O         1.7308989654        8.4028119884        9.7977570344
  O         1.7361801792       11.6113637230       13.6845504588
  O         1.8106703420       12.3592234671       11.2105244238
  O         3.7057449515       13.1720096312       12.6906233610
 Si         2.1059367027       12.8363880089       12.7132632765
  O         5.2792594670       12.3546964386       10.6328819028
 Si         4.8220487818       13.6232052083       11.5869694673
 Si         0.7952098624        9.4064721174        8.8984536297
 Si         1.0175297075       12.4089006098        9.8239482885
  O         1.4801913892       13.7510518230        9.0626399959
  O         6.2504488270       10.2195203520        9.2091533845
  O         1.2380139683       10.9734140582        9.0647564681
 Si         6.6060858472       11.4572481282       10.2251522253
  O         5.9230673894        8.0059854642        7.5749707551
  O         5.3580880855        8.7327343745       14.6664522851
  O         7.3353513813       10.7978689593       11.5229824448
  O         7.6542171947       12.4374143124        9.4805836112
  O         9.8789898738       13.7506747827       12.6920369775
 Si        12.7945719454       12.1924254844       10.2326900768
 Si         8.4436145489       10.0892543887       12.4729117134
 Si         8.8589315539       13.3761954546        9.0241509809
 Si        11.3779525611       12.5019106652        7.5571340195
  O         8.3896281673       14.6112254364        8.1436142306
  O         7.6612624742        9.0610988208       13.4348655369
  O         9.8875354562       12.5211919485        8.1524453751
 Si        10.7002094118       14.2293301364       11.3996199543
 Si        10.0005577314       12.5646376149       13.7683982370
  O        11.6073490260       12.4487218897       14.0098064129
  O        11.7905905661        8.5673946423       10.4585826840
 Si        13.1633446431        9.3574936241       10.7015261169
  O        14.3004955631       12.6871820510       10.1271285537
  O         9.6328658002       14.1033736157       10.2234972051
  O        13.5298383269       14.3273026791       14.5740124101
  O        12.2752628687       11.8630629590        8.7362348307
  O         9.5542488357        9.2267689345       11.6917279177
  O        11.9392763224       13.2808797541       11.0308674096
 Si        10.6571357222        8.0791550403       11.4941142895
  O        13.9970922252        8.7250550258       11.9099252131
  O         8.3126751490        8.8958620691        8.2391487028
  O         9.3006336125       11.2099461736       13.2633677934
  O        12.7689742197       10.8571355260       11.1152917139
  O        14.0856580954        9.3063255504        9.3900721410
  O        11.3722387627        7.6455638883       12.8700058106
