216
14.888 14.888 14.888
 Si         4.6582589155        1.7298854500        4.5399830240
  O         4.9584900553        3.1507169143        5.2191332095
 Si         4.3567019432        1.5083107143        1.5628372481
  O         3.1351645242        1.3297322385        4.9605800253
  O         4.7098717425        2.0699941598        2.9969199195
 Si         1.2683555211        6.0727114660        1.3823110438
 Si         3.2552885941        6.8356052075        5.9026793419
  O         3.8050754121        5.3783628493        6.2033978880
  O         5.8077038209        6.0258649555        2.8076153445
 Si         2.2750645081        1.7776982720        6.2720242893
  O         0.6869067572        1.9809768863        6.0350953557
 Si         4.2714824606        3.8956311284        6.4676105025
  O         3.3923733471        2.5644388609        0.8257937479
  O         5.7851090857        1.2478873832        0.9123935623
  O         0.6405405442        5.2104953287        2.5623788297
  O         1.6529460041        6.9475793182        6.2024131822
  O         5.7879215501        0.6461242909        4.9571288842
  O         2.9023751933        3.1424547239        6.8594800062
  O         2.2349318865        5.0313893619        0.6587473902
  O         3.8003735800        7.1139368571        4.3895916205
  O         3.6461140907        0.0829336448        1.7339169650
 Si         0.0926338536        6.4445953336        6.2966196302
 Si         7.1665266162        6.0712986195        1.9025392957
  O         6.9485889286        7.1806526182        0.7490952112
  O         5.4670918520        3.8909561175        7.5261356293
 Si         5.0683302423        7.3387986112        3.4099502607
  O         1.9786719960        7.3629853879        2.0664256689
  O         0.1625848230        6.6144878880        0.3374622393
  O        14.7210210051        5.6416505593        4.9556584543
  O         7.4493293538        4.6277171947        1.2386887943
 Si        14.3040964220        5.0319744730        3.5622465959
  O        10.5063898463        2.9789647640        6.6219275638
  O        14.2163316890        1.3339791359        2.4007370160
  O         7.8652541229        2.7310447989        6.5270882843
 Si        14.0609963174        1.4299905548        6.2419271906
  O        13.3231564825        1.2317897007        4.8194709896
  O        14.0571577771        3.4825980771        3.7979682422
  O        11.7530318237        2.5599493008        3.1394979434
 Si         8.5830864287        3.5998828441        0.7004796434
 Si         9.2723447561        2.2520266782        5.8809220254
 Si        13.2895070673        2.1220906380        3.4729189450
  O         9.5024306519        3.0559334817        1.8939278037
 Si        10.3109548063        3.3110311997        3.2497107194
  O        10.4111899406        4.8878438667        3.6433627690
  O         9.3387904930        2.6558407780        4.3419117169
  O        13.0000645026        5.7829196286        2.9757888337
  O         9.5131652151        0.6509290278        5.8645905008
  O         8.4418581336        6.4519880820        2.8258631061
 Si         9.8150888402        6.4010301717        3.6653513833
  O         9.6601125142        7.0306509612        5.1843967674
  O        10.9088683691        7.3467984139        2.9050353288
  O        13.0580153435        2.3214838749        7.1301722531
  O        13.8265793626        0.4137694339        0.0881334066
  O        14.2333912579        0.0611909408        7.0398716004
 Si        12.5174850849        7.3208637152        2.8706430564
 Si        14.6163335874        0.0844817953        1.4491886588
  O         7.8626018796        2.4278758517       -0.1514739306
  O         4.0494686731        7.8503419987        6.8633815817
  O         1.2414233149       14.6471963421        0.9977287354
  O         6.5332570566        9.7666506292        0.5728549482
  O         4.4977641811        8.1812978010        2.1704568967
 Si         5.9608260186       11.2602206142        0.5465712749
  O         6.7723610456       14.0598603040        6.9378747501
  O         6.2693802254        8.1842216441        4.0426705609
  O         6.6209226661        8.5240710749        6.5413878046
 Si         6.4813529712       14.1227961575        5.3521715652
  O         2.7228549551       10.0000693543        1.9032293100
  O         5.0100319407       11.4300648285        1.8321609908
 Si         3.0484590804        8.4556574121        1.5605475364
  O         2.6443421341       12.5754851345        1.9901111840
  O         3.7318006871       11.1732584867        4.0561142771
 Si         3.5237245065       11.3009911685        2.4551497842
 Si         4.8479911862       11.4601742510        5.1984124199
  O         6.2004326720       10.5924098639        5.0359833516
  O         5.3713747063       12.9842281578        5.0446582644
  O         4.1385242015       11.0922869856        6.6273657943
 Si         2.6678333434       13.8991702547        1.0602719552
 Si         6.9424762767        9.1722232462        5.0989865270
  O         0.5714997391       11.9064669916        5.7694297551
 Si         0.9244267031       12.1192942915        7.3364267009
  O         7.2048239342       12.2565410144        0.5720114992
  O         3.1364140445        8.1881724247       -0.0037873725
  O        13.1560370307        8.1814566262        4.0487405988
  O        10.2442641437       13.0695884774        5.8859655236
 Si         9.5241942172       14.1882708574        4.9505167662
  O        13.8328754205        7.5883412514        6.4608132939
 Si         9.7518622803        8.6065110486        5.7031375363
 Si        13.5451598467       12.1578850970        2.1815324272
  O         8.5344643196        9.2591962285        4.7911690307
  O         7.9377778088       13.8961873605        4.6357586657
  O         7.7828372697       14.7215839389       -0.0005551087
  O         9.4548460744       13.1555255133        1.4078305571
  O         9.3413710559        9.4244614521        7.0546477058
  O        10.4085255688       14.2249499386        3.5633792017
  O        12.7537006335       12.4047426989        5.6165813431
 Si        10.8302843843       13.6402546817        2.0922371535
  O        14.2171360089       11.3409048129        0.9305183929
 Si        13.9943072343       11.4689415508        5.1636622882
 Si        11.5592476863       12.5768949170        6.6914158934
  O        13.1410585840        8.0214046360        1.5851942605
  O        14.1416741333       13.6490301634        2.2273943367
  O        11.9154642420       12.4054846562        2.1489897654
  O        13.9815008742       11.4181718635        3.5518949337
  O        11.3769720466        8.7782457900        5.7775349427
  O        13.7264929640       10.0193094141        5.7877889838
  O        11.4886482474       14.8057000148        1.1497592787
 Si         8.4050892523       13.2522535222        0.1935821721
 Si        13.8232348075        7.6421000764        0.1949416444
 Si        12.9799055542        8.6327679433        5.5662918499
 Si         4.1127155137        5.2179454860       12.6333047564
 Si         1.7294944347        3.5035523625       12.0837895055
  O         1.8109124805        2.2323540857       11.0920316958
  O         2.9805572591        4.4765182963       11.7320015427
  O         5.6281964135        5.1296645606       12.1567447401
  O         6.0351400256        1.0773196692       13.3085693219
 Si         2.2693252096        0.6905626348       11.1453349139
  O         3.6265803440        6.7474574427       12.7308477219
  O         1.9055638736        3.1460446021       13.6594550005
  O         4.1435372434        4.4605627724       14.0564066639
  O         6.1029528488        0.7370028577       10.8287505896
  O         3.6539842522        0.7426040012       11.9984799030
  O         6.0410427955        6.9363734148        8.4371319884
 Si         7.0655018355        4.7064435544       11.5996558805
 Si         5.2242651825        0.3280200315       12.1362060141
  O         6.8627173990        2.3268028277        8.8242827538
 Si         7.0156815321        3.4661330731        7.6980746759
  O         7.0237919394        3.1455402706       11.2526530845
 Si         7.1661892298        1.8586984180       10.3176623335
  O         0.2530558617        4.1400310624       11.9232034466
 Si         6.8913563047        1.1450468837       14.6686497976
  O         7.2869969110        5.6986423875       10.3738983754
  O         2.5726219953       -0.0069595675        9.7422475248
 Si         2.8904231974        3.7724078500       14.7915241583
  O         2.6419126729        0.6778018150        7.3457687220
 Si         7.4280412113        6.2256964638        8.8815062353
  O         7.7696462053        4.8787473958        8.0225385575
  O         9.6734373906        4.3195965583       14.6534876496
  O        12.0840843465        4.3725693563        8.1850742136
  O        14.1410980589        3.8873093150        9.5966306891
  O         8.6997589881        1.4020025083       10.2673864162
  O         8.3308194044        4.8856826126       12.5665513025
  O        12.6432797948        5.0680044693       11.3299487106
 Si        13.7396900139        3.8831218031       11.1712103604
  O        12.9884623988        2.5700169185       11.7418893584
 Si        11.5472280036        2.0517904819       12.2895786577
  O        11.0051388146        0.9189952027       11.2625080435
 Si        12.2994482456        6.4837790013       10.5864030050
  O        11.0041280313        1.8280964605        8.8480292535
  O        10.5130564286        3.3032747712       12.4011935919
 Si         9.8235784254        4.6022955147       13.0879734127
  O        10.6680002539        5.9540408420       12.8994772587
 Si        10.1670923817        0.8630189267        9.8781240330
  O        11.7269010354        1.3322154707       13.7291459694
 Si        13.5561596392        5.0088623899        8.5756280259
  O        13.3115759899        6.4385200694        9.3364173168
  O        10.8222812826        6.7640633865        9.9908138837
 Si        11.6553022021        2.8528124538        7.7388749366
 Si        12.2886968695        0.1261896684       14.6306393340
  O         8.5974020426        7.3514658093        8.8587921880
 Si        11.5896667412        7.2562366735       13.1132412174
  O        12.6703590948        6.9381914257       14.2301728496
  O        12.4101904342        7.6000106656       11.7457941885
  O        14.6482941290        5.3643013722        7.4559882610
  O         0.9817736757       14.7195527848       11.6652679298
  O         5.0429743292       11.5782638902       14.1376044482
 Si         3.0265520151       14.3699141417        8.2945242827
  O         4.6324094487       14.1322297704        8.4305638061
  O         5.0570035146        9.4318070109        8.5204101307
  O         3.4617101962       11.3398106329        9.3427439932
  O         5.4614475813        8.2713660087       13.6508596098
  O         3.1527759228        9.3393486877       12.6706678942
 Si         3.8697817839        8.1490620579       13.4650606891
 Si         4.1231787569       12.6800028006       13.3886096494
  O         5.1138264317       13.6341376502       12.5097248970
 Si         2.1501599018       10.5802718470       12.4943934378
  O         3.0692552848       11.9184787854       12.4301093386
  O         1.5717227075       10.3335357279       10.9973178873
  O         1.0029303397       10.8331244973       13.6365867308
 Si         6.1247189172       13.4746660246        8.2921246094
  O         1.2456470370       10.8255174555        8.2700956221
  O         5.8593080517       11.8900657192        8.3461042274
 Si         1.8586214706       11.2620078262        9.7130943406
 Si         4.5675160789       10.9346736734        8.2120501923
  O         1.0947180087       12.6315927757       10.1681956779
  O         3.2355402875       13.4964495259       14.4802063766
  O         7.3468960973       13.6519452702        9.3384189218
 Si         5.4500977290        8.1718688355        7.5947730206
 Si         6.7389256155        8.4099776600       14.6273742955
 Si         0.0490117086       13.6821281941       10.8153642815
  O         2.1587912702       13.1510723228        7.6234719318
  O         9.0983419070       11.6827107611        8.7060243967
 Si         9.7185318427        7.9422469212        9.8742311428
  O        14.0567502268       14.4123514148        9.6410002467
 Si        12.6659680426       12.4984236804       12.7506833841
  O        13.8196759122       12.9885751113       11.7451821913
  O         8.0403982945        8.5114696272       13.7114062732
  O        10.3375145926        9.3568194510        9.3409522390
  O        14.3170461225        9.0234235937       14.4648813089
  O         9.2542922312       10.5489679457       12.6525121751
  O         9.1911172054       12.8958853337       13.7222173391
  O        10.6541259884        8.5118534362       13.4735076736
 Si         9.6593757978       12.0746666356       12.4168263581
  O        14.3934020900       12.5652328022        7.9405219277
  O        12.3111733876       13.6347987554       13.8223666368
  O         9.9220207346       14.2281920279        9.3499231845
 Si         8.8236632353       13.0345366560        9.5997532144
  O         8.8538606134       12.6535992641       11.1605546662
 Si        13.6392496963       13.9510012532        8.1446324241
 Si         9.9963459527       10.4244709944        8.1546096443
  O        11.2435056890       12.1585347072       12.0749585129
  O        13.2354070441       11.1742912846       13.4671571380
  O        12.0852094737       13.6624555261        7.7878354511
 Si        14.4405722477       10.6166881027       14.3721829667
  O         9.0999903004        8.2658658350       11.3314381308
 Si         9.2542640238        8.9619899072       12.7814126277
  O        11.2500132726       11.1722600389        7.4465681652
