216
14.725 14.725 14.725
Si     12.466020575500000      3.390826008999999      1.278215738900000
O      12.303097292400000      2.264054424799984      2.390077160800007
O      12.129613505199998      1.600453899099990      4.856340398100013
Si     11.290640890499997      2.246852333899992      3.629563475500009
O      10.761212493599995      3.704830898199995      4.033708325000013
Si     10.770329243599996      5.061079350799994      4.885797911800015
O      11.062733248300002      4.057771700899994      0.827556984500007
Si      1.417384711299996      0.071645760299996      5.297641365300007
O      13.284184051000004      4.565200805799990      1.989026856300010
O       0.988742138900003      4.650627261199987      2.875868562700006
Si     10.609514823300000      5.186096284799993     14.495365018500003
O      13.192589792500000      2.682214138799989      0.037075106100007
O       1.087562652899998      2.341139320799980     14.666284794100012
Si     14.427328796499996      5.552254011599999      2.502331206900010
O       1.090793001999995      0.134286339200000      1.418101013300001
Si     12.949848603900001      0.386781476199997      5.562021853800010
O      14.584798032399991      0.539857281299995      5.585860467100006
Si      1.896213604099994      1.021831035500004      0.371031097000009
Si     14.546157715800003      3.071379272699992     13.993779158600013
O       1.416797933999994      4.131047181199999      5.349544577700009
O       1.498035981599992     14.041636280799997      3.863644420700012
O      12.601308788200001     13.786343566399999      4.749793347800011
O      10.407484995399997      0.457853040099991      0.509563232600010
Si     10.685792721699997     13.869915975400001     14.331856603200016
O       0.024520362799997      4.627765407899991     14.169670769000007
O      10.002605204100000      1.529724138200000      2.973458514300006
Si      2.145766811999999      4.353513169899990      3.940658079800011
Si      0.875293530100000     13.640820826499997      2.420768420800001
O       2.067521415699997      0.138208490499991     13.771292396300009
Si      0.181879249799995      6.182828184800001     14.390665998800007
O      11.784433218800004      4.811220277499991      6.143743809300011
O       2.477039809199994      1.288884320299995      5.265752828500008
O       3.213541789700000      5.534451498099994      3.962283035600005
O       7.232040374300001      3.674133251299986      5.583672513000010
Si      9.345104555900008      0.927316742899998      1.630207263200004
O       3.051430052400000      3.081178699599993      3.609349707300012
O       3.312651384400003      1.427154032699989      1.018384173300001
Si      3.744744964800003      1.949925133599998      4.521915268800008
Si      4.595890830799996      0.891142956800001      1.842376384100005
O       4.438944952199982      0.956267453600007      3.454785249800013
Si      7.419319228500011      5.310700222199999     14.634998039300008
O       5.816980437000007      1.848044839700003      1.419702336900007
O       6.893727228000002      3.799552601599993     14.587459519700012
Si      6.844437368700009      2.249079766999993      0.249564990600007
O       8.292821620700007      1.853004112799995      0.834779332400007
Si      7.631429240399999      5.222006895700001      5.219391164800011
O       8.612588725300000     14.373497879800002      2.221483887900003
O       4.853170988599996     14.053531248400002      1.488821246100008
O       9.247939834400004      5.376339821999996      5.344614024700007
O       9.021242658500004      5.375684949399989     14.581794293200005
O       4.836464106100000      2.513191851699998      5.583120329800005
O       7.140370962800016      5.444450129699999      3.708402955200009
O       6.816397835000017      5.948068657699996      1.237578919900009
O       6.784202667300003      6.106439817900000     13.374979253900014
O      11.317977128199995      6.271370661699998      3.945923518500004
O       0.015734460200001      6.521620203199991      1.247246497499999
O      14.011847475899996     13.484030755900001      2.558837874200001
O       1.691556484999995      6.538821326999991     13.994687735700008
Si     12.384016160799995      7.611545911599992     13.996118720800002
O      13.923869165599996      6.431797741999997      3.772615687200016
O      10.398981297399995      9.621445306999988      5.492200187600006
O      11.389366204099989      6.581103286699997      0.026288392599999
O      11.075441815900000     12.661146679399998      0.598255596700005
O      14.163476690500008     10.447082725100005      1.576167046700010
Si     14.599443948099990     10.576666123399992      5.403991642100007
O      12.041045049100003     11.988008587899998      3.126049422600006
Si     12.572931598600000      7.309815069799991      4.046880078300009
Si     12.821026163200001      9.488652521799985      1.661045096900007
O       0.662862558299997      9.541604561399996      4.440658136800007
O      14.480192317699990     11.983393533800001      4.596763914000010
Si     13.283403378700006     12.740549616599999      3.772349366100005
O      12.943481076999994      8.641306875099996      0.332265977700010
O      11.408892610499993     10.261299648600001      1.489167883200010
O      12.631723542499991      8.546407355699994      2.980360710500001
O       1.413447591299995     12.235780223500001      1.816369060400017
Si      1.019773050099997     10.767265123099989      1.231038872000016
O       1.820847476900001      9.635877244799993      2.064969055900011
Si     10.999752766800004     11.744930123599996      1.912839798699997
O      12.388238780099996      7.885471145399988      5.564984834400013
O       1.573364080699987     10.688862925900001     14.409418251400012
Si      2.049514882599997      9.402502354899996      3.638359307400010
O      13.034292060599995     10.282752173599992      5.584965323400016
Si     11.858689742599996      9.318731573899992      6.105947356900007
O      13.764497277099997      6.909780953799994     13.508093131800010
O       5.087165663599995      6.998879557000000      2.961603666000004
O       7.378841717299998     10.038537479099986      1.398327987300009
Si      4.674333684800001     10.797981194299997      4.170257574800001
O       7.706014923500002     11.830093140199999     14.089981759500006
Si      7.187278425300003      9.461008128599996      2.925803511100003
O       3.112753279900001     10.450976189900004      4.200481913400008
O       6.899968013600001      6.442938255500005      6.065890701800012
Si      8.382361855299997     12.840334193500000      6.031819644200013
O       8.529666922700009     11.253311335299998      6.394484457000009
Si      6.608356679100011      6.554159087899993      2.686692800200007
O       5.350005019399992     11.570714196200001      0.669653512300008
O       5.661950865300009      9.791915047300002      3.377565364100019
O       4.690547635799999     12.166587232199987      3.300481778900003
O       3.046974925500010      8.638287724899993     14.416820721500006
O       9.510761235000000     11.906592079999999      2.480840100800013
Si      8.794106427599999      9.798418134199981      5.684007513200008
O       2.806305252600005      6.764908528399989      1.645601387900015
O       7.469007353099993      7.894623980399998      2.804910182100009
O       8.202414501400000     12.988628656799996      4.451970915000008
Si      2.964501650899996      7.087413430200000      0.086744232900012
O       2.730265135100001      7.986123738299994      3.874388037000006
O       8.124192054500003      9.879538931099994      4.196252307600008
Si      8.366818859599999     12.958637053800000      2.877424985500011
Si      5.410499120300011     12.611835257700001      1.923206517000013
O       5.096610818400000     10.767889605699992      5.742402124800005
Si      3.503844729500000      6.831326970199993      3.087091427800012
O       6.973699937200005     12.557615195699995      2.237960845400000
O       4.369439243400000      6.430392309399995     14.422959906800003
Si      6.691283234800010     10.795702893599984      0.105103442800013
Si     14.673080524699992      1.601037232499995     11.387655672100006
O      14.097122590099994      1.932346433099990      9.910085035000005
Si     12.502162675900003     14.251866577900000     11.933601690900010
O      13.916313981600002      0.282704821499997     11.887783467500014
O      11.389833476299998      0.302745503199998     11.065611259500006
Si     14.304189719199991      3.180224108099983      8.914340032800006
O      12.873606649899996      3.825176235399991      8.524472104900006
Si     11.746303574800002      4.704729363799989      7.750500320100008
O       1.547526845799998      1.374753995099995     11.450295954400001
O       0.262900486999992      2.912453578999999      7.458538462000012
O       0.679194969199988      4.064623684699991      9.745631386500008
Si     10.946848695599996      5.206135388799998     11.510509323000003
O      14.340938659499997      2.760797410199981     12.441484323199997
O      10.579278187599996     14.048108264299996      8.844996100300015
O      10.323643675299994      4.056622750900001      8.109199025800013
O      12.375016558699986      5.602180073399995     10.827564861400013
O      11.077847937500000      4.708439546099989     13.025507685500006
Si     10.201855938999998      0.366247103199997      9.990782336800006
Si      1.143977549399995      4.162105640499997      6.900236394500011
O      12.202544521000005      0.051656862299998      6.971793564400016
Si     11.030133945399999     13.697695721800002      7.351218746900004
O       0.342356878199998      5.526649756199994      7.294040268900011
O      11.971367283199996     14.196711044699999     13.436785847500007
Si      2.155708145199999      4.657370336599999      9.351283857100007
O      11.807885696300001      6.196355954800000      8.360685020400020
O      10.002852938499995      1.847398017699991      9.423245238499998
O      10.169767199200002      4.059462883899991     10.735017835300010
O       2.052139074299999     13.890029134099999      6.477715742300013
O       2.476595060800002      4.155034426899991      7.827543154800008
O       2.481268661199998     13.715308627400002     11.558079322199998
Si      9.619236510199997      3.395831634899987      9.386113586100013
O       2.642127557200002     13.864405238299998      9.013129108900014
Si      2.556357588500003      0.409192038400005     12.272168900900017
O       8.791050231800003     14.623123247400001     10.583981642900007
O       3.312433649799996      4.150367035099991     10.313532329200001
O       5.837618344600008      5.042358849599986      9.926165776300010
O       4.024147564099999      1.028136837399988     12.371843686500018
O       6.326272965000000      0.802682800499991     11.151245661100010
Si      5.504128567099998      1.619451971500006     12.232604820800010
O       5.351666385000010      3.089910582399997     11.635014243200001
Si      6.907853597700011      4.684961479600011      8.777332150100010
Si      7.218658945700006     14.326782900699991     10.630997130800008
Si      6.248452149199990     14.578069673299996      7.579406654400012
Si      4.771835694199990      4.410880452799996     10.958426294300008
O       8.038629458200017      3.645632512799987      9.271553944200008
O       5.983781584500007      3.880023384299991      7.702702013600012
O       6.655187093199991     14.189640293700002      9.108850378000009
O       4.630334397600002     14.462914670599996      7.374019972600005
O       4.520414130100005      5.453439743499994     12.120700236100006
O       6.647102223599997      1.364731303399997      7.063523366200013
Si      6.161195895799998      2.821900033599993      6.478630981100014
Si      3.244422643499999     13.632129467299997      7.536381798400007
O       9.704517311700002     13.707177887200000      6.415035758000009
O       7.063815913699990     13.473754677300001      6.720780630200002
O       6.327423824399992      1.526719377900009     13.617552854200015
O       1.910689944699999      6.265679927100000      9.263405895400009
Si      1.950994045299995     13.045503052600001     10.211303683500009
O       0.678762483599989     10.527694137299992      6.820141553100006
O       0.331200499300001     13.060308374599995      9.991561113700005
O      12.787761159599995     12.754387765400001     11.389038623399998
Si     12.593634415900004      6.736172535099993      9.663859090800006
O      14.115163575499999      7.013813986199986      9.262597847400023
O      11.548423174699991     12.166537131499997      7.377822372700003
Si      0.670132500399999      6.743406452999985      8.316289952500018
Si     13.865788098599998     12.029923940799993     10.441777062000007
O      13.037090209200002     11.338265893499990      9.257336841400011
Si     10.775014896699997      8.047366033399992     11.416191335199997
Si     11.668099178199999     10.998155743299989      8.492520534400008
O      11.889183164999995      8.068940719799990     10.238440130100003
O      14.666608144099998     10.837305267399998     11.161244919100010
Si      1.392778412900007     10.261476014500001     10.746244544700005
O      11.739114841299997      9.568634060399994      7.706563195300013
Si      1.578340015799992      9.478264559399992      7.702341144000014
O       1.079155727600003      7.982533277799994      7.379946608400006
O       1.329971052899996      9.536771299999991      9.305350903199995
O      11.567191644099996      8.316602319699992     12.796770434100004
O      10.411494284499994     11.012594050699992      9.506302612100002
O       1.816744248699993      9.387196057699992     12.041919819500006
O      10.090063101599998      6.584679918599996     11.478184549300003
O       2.389493966699995     11.503243344999998     10.408703547900007
O       6.323421126599988      9.793124786199982     13.601455657000010
O       7.711569639200003      6.029685242199992      8.291814045700015
O       3.610975222300000     12.096814256600002      7.389099072900009
Si      5.293599953000006      9.498676462099997     12.375236134400000
Si      9.203542245399998     10.477442932399992     10.432259904300000
O       5.756823691799989      9.711743386300000     10.821589592900001
Si      2.569614050400006      9.812720882499981     13.432606259000005
O       8.281013709800000      8.551470243299992      6.645215622500001
O       9.017269280199997     11.430934044400001     11.717951583600009
O       5.428231886199994     10.527260602199995      8.361357311500008
O       9.599183162800006      9.054683289799993     11.069319039800007
O       9.440862334600011     13.481539627899998     13.352583433900008
Si      4.344313880199999     10.710672531400000      7.188845679600009
Si      8.318665503400013     12.479460245999995     12.735866691200002
O       7.879202205399999     10.280107065599992      9.512767498700008
Si      6.390630544600000      9.649927139399999      9.314269943599999
Si      5.243502023700005      6.491209610299991     13.076978588600008
O       7.153087579600000     13.157610104000000     11.788631828300002
O       6.492205531399994      8.237753808999997      8.451723890500013
O       3.140895791200001      9.620823915199983      7.300996775900005
O       3.967485859700007     10.361759891999988     12.784967721500003
O       5.089031842100001      7.911181807299992     12.377448598600012
Si      7.362500000000000      7.362500000000000      7.362500000000000
