216
14.935 14.935 14.935
Si     10.468007544200017      0.417236371300009      5.636532303000003
Si     10.896190716400014     14.171938857600011      8.434563512700009
O      11.000609525200007      0.215059151300016      7.155007818600014
Si     13.298301939600009      3.668874144200015      5.044147087000007
Si      0.430921749100015      2.247118439100012      6.689369311400005
O      13.893944831100008      2.528063771300006      6.050408726199998
O      11.575610763200009     14.655359641800015      4.651807907300006
O      11.719105282200013      3.958648699800016      5.066073247000006
Si     13.140718195100005     14.508388715000011      4.199265605400003
O      14.003272261000006     14.395347368600014      5.574025597900012
O       0.456177141100009      2.786513181100007      8.215710582100002
Si      0.438333846200017     14.192225733600019      6.417744632700006
O       0.206453378400023     13.328458740000023      7.788213679599997
O       0.865927934500029      0.718058776200018      6.892567681600006
O      10.253470053600013      1.964702539900014      5.307315957300005
Si     10.176672417800020      3.561967603899999      5.251097551600008
O      11.586604997300016     14.717470402400012      9.831531413100004
O      13.648736089800016      3.301899133700004      3.509619031700000
Si      0.900592675200018      2.676646398400015      9.777523594100000
O      13.576309473700013     13.153566148300024      3.419163136700007
O       9.662278899900016      4.197427051000015      6.635350973299996
Si      0.843885193900018     12.785852488300009      9.198751728200001
O      13.498648489900013      0.772524122300007      3.168672292500010
O       9.178047949400014      4.101242001200006      4.086449856500005
O       9.331275872700026     13.995664889200018      8.804947363699998
O      13.976979918200009      5.017301432299998      5.556835577700006
O       1.633313938100009     13.641668545600016      5.476984462700005
O       1.475164979600012      2.786721153000006      5.552530110400009
O       1.876216094400021      3.944522952100012      9.950939554100003
O       1.636353022000008      1.258898626400007     10.139257124700006
O       8.950633430500016     14.808153699500007      5.490491254400009
O       2.214001523500011     13.657309730500018      9.389818804199990
Si      8.382962445200018      4.640953517800007      7.503657478100003
O       6.103644506100013      1.809651738200006      8.459689415200003
Si      5.171940985500011      0.491992410600018      8.253631187099996
Si      7.295713932400012      2.390431368200008      9.404640972400003
O       6.026002457800003     14.043345706400007      8.389130806000001
O       4.450212634300022      0.385340096700017      6.820911150000008
O       8.258353233300014      3.453526949800019      8.620949374300004
O       4.118949443100013      2.184542459200010      5.061797606300003
Si      4.678946789500006      0.678104187700002      5.255724368700001
O       6.273086750200010      0.457047858400022      4.983574664300009
Si      2.999419819800010      3.305456024800013      5.350487057700001
Si      7.638522320600010     14.597373802900014      4.581273820800001
O       3.776293333500016     14.651823010400003      4.317769833300007
O       4.036544746800018      0.618912658100019      9.370367917099999
O       3.269170195800004      4.360113046399995      4.162939637500003
Si      2.787820591100004     13.365316909300017      4.371227575700010
O       3.188626515600014      4.116141160999996      6.730070619900000
O       6.951543640800016      4.528185881900008      6.729320394200001
O       7.424671011200011     13.004760817100010      4.657784899500008
Si      7.891240794600008      4.664747688200011      3.259101414200006
O       7.940891853700012      1.016540380300000      9.945928887700012
Si      2.758288129900009      0.067342726600007     10.161566981100011
Si      8.518600052900009     14.464799174600021     10.125814537000007
O       8.005496680700007      0.125955776000004      3.077258624999999
O       6.619422964500020      5.027419540300008      4.226526578499999
O      11.515126972600017     12.757429319500023      7.987331939799999
Si     11.672602436000009      7.985704242900007      3.778460694700011
O       0.881748861200015      6.343375746099994      9.294689255799998
Si     11.556334746200013     11.152122121200016      7.962008597700003
O      13.070217619900010     10.671868788300010      8.295171860500005
Si     10.968656864500016     10.699643783300001      4.955172894900017
O       0.144493996300009      7.112556573100001      4.730329144900003
O      14.653227061200003      8.693394459100007      9.125072690300005
O      12.435466549600015      7.158958285200008      4.973627203100002
Si     13.840481209800025      6.612255730000015      5.616445303800004
O      14.154983039000008      7.017067021200012      7.147211947199994
Si     14.583054077700019     10.104214907599999      8.339899655899998
Si     14.520040523999995      7.125943281600012      8.723419097400003
O      10.928778600000012     10.672508811100014      6.558781074900007
O       0.707173188800008     11.168800866900023      8.973401134700001
O       0.053166690000023      9.755025343700009      6.818228045600006
Si      1.087588274800016     10.309582933500009      5.731399920500004
O       0.209158648400012     11.406813248900006      4.899179341699999
O      10.831575430300012      9.191472958500020      4.420574661300006
O      12.443345912700009     11.229785038600017      4.567515464399997
O      13.237837237400006      6.507379912800015      9.451683108899999
O      10.582197233800008     10.496904868800010      9.054598155800001
Si     13.859686238500021     11.638073840200022      3.906695588900008
O       9.744682239700019     11.576529101800011      4.321394539300003
O      11.164061746100018      8.097719028300013      9.958142822200013
O       1.706767687700015      9.080919041400008      4.897069182700010
Si     10.788587817500011      9.602727957000015     10.368111159899991
Si      1.692653991600015      7.471066708200009      4.974973649600005
O       7.511722029100002     10.443079046700003      5.067359845100010
O       2.621238084700006      6.928226924100012      3.800411589600005
O       7.518390102300009      9.083104726400011      7.230164694200004
O       7.007863485100017      7.011749213900011      5.979862266199999
O       5.690659262400007     11.743181173900023      9.700856970099990
Si      2.212867561900017      5.511381130000015      9.733093108900000
Si      3.386346459399998      5.707140814200016      6.945807517999997
Si      7.467500000000000      7.467500000000000      7.467500000000000
O       4.349940901700012     12.246323536700000      7.465496505300003
O       2.288001962300006      6.752106701300004      6.319860855200002
O       6.864471452900015     11.647447447600012      7.375868446399992
Si      6.287514808100011      5.593483905300003      5.703600466400012
O       4.775066922500012      5.937826907800003      6.142745525300016
Si      3.052096038400005      5.545990961600005      3.119327321900004
Si      8.112333641200017     11.628451210700018      4.166402708700013
O       6.523927486200015      7.416286742700017      8.786613936300002
O       2.401981081100013     10.854416313500021      6.495534075900005
O       8.579834439700019      6.264748252800013      7.802221171300006
Si      5.750328228400018     12.442721394700010      8.242174569700003
Si      6.739846421400015     10.293518647000010      6.471740610700002
O       5.113259785800014     10.172553375400012      6.148470263499999
O       3.776957112500011     12.151911695900015      4.827609141500015
O       3.289834167100014      5.850031627700005      8.553251209300008
Si      3.927149602800017     11.309544460400003      6.212939272999999
Si      6.712964623100013      7.058589579900008     10.350330816300003
Si     12.390978153900020      0.618559861900012     13.636086542000001
Si     11.011146980800023      2.730381702200007      0.607350942300015
O      11.410619771000009      1.623220344800022     14.428443758600011
O      14.239132813400019      3.436469211300021     13.445939078500011
O      13.404537009300006     14.820534093400010     14.678567461100009
O      11.737617749100021      4.139141450200007      0.323128855600013
O      11.589127840100010     14.483031323799995     12.773690248799998
Si      0.086237014500014     14.677678032500012     14.495128392900016
Si     10.836533230800024      4.518890715000006     11.703970911700008
O      14.137422714099994      2.515662989200012      1.092332229299994
O       0.379440654500016     13.792056401400016     13.179590480699996
Si     13.578305932700003      2.864044488900020     12.069223809500013
Si      0.102065596000013      2.730142994200005     14.686654785200005
O      11.667993223900011      2.209089046800008      1.998012959400012
O      12.164463885100005      3.602761933800009     11.779758243999998
O      13.235588452100000      1.345024132700001     12.462421308100010
O       0.797028289700018     13.985741942900013      0.835648950399997
O       0.634928467600014      1.254897509400018     14.278105357500005
Si     11.060626505400014     14.150235013600021     11.296177810900010
Si     13.251112886700007      2.187948346600010      2.416405420799997
O       9.399743855200009      3.857286442700022     11.365495020600001
O      14.566953059900012      2.867574883600015     10.790493552399999
O       9.439023318800011      3.116955484400012      0.574992660399997
O       9.525033913200023     14.570911227900016     11.374812978999996
O       1.365087694500011      3.683771140000005      0.006119551900012
O       0.221641455500014     12.983003938900019     10.698188867799992
Si      1.719149019600009      5.132694488000013      0.571486004599992
O      11.333303338700015     12.567198051400023     11.203055113099998
O      10.593617224800013      5.206045839900010     13.136164261800008
Si      7.840937092400011      2.845984005300019      0.769963148899996
O       7.847072083600017      1.237352092500020      0.741514481499984
Si      7.453531564200019     14.879236151400011      1.578238171600001
O       5.839561203300007     14.823263574300018      1.508634935400006
Si      7.888567205600014      4.466539995900003     11.325255447100004
O       3.365509290800019     14.629106582100004     11.641177336999995
O       4.942160198100017     14.472746238600010     13.944982543600004
Si      4.283179156400022     13.730227697200025     12.649907752600006
Si      4.972492544300012     13.878056575400009      0.533069284599995
O       6.758043421600017      3.377410329300019     14.603187448099998
O       8.005997346400015     13.463822590400010      0.991633998799998
O       7.436122935000006      3.537380078400015      2.180830296500000
O       3.448568512000011     13.898365392300022      1.004100311500006
Si      6.192332130400014      4.716011736100015     13.817746993800004
Si      2.082502492900005     13.117526586900018      1.321982192699996
O       7.421675175800007      4.945409375700009     12.797318461600010
O       6.928971072500014      3.288585258100006     10.717270751400012
O       5.513210630800013     12.991526623500018     11.952243523700004
O       7.594190293400005     13.239717468300015     10.537036913899994
O       1.872722083400006      5.026058686300003      2.163289130200008
O       4.857437259200011      4.939095018400006     12.860409778400008
O       2.075038634500010     12.990144847500003      2.948062762300005
Si      0.181398319600019     12.482870755500027     12.246282775000010
O      12.833342120500005      8.521528031500008      2.814820386699995
O      11.075463484200023      5.597480494000015     10.544011927899993
Si     11.206881720800014      5.500724317000005     14.592593125900013
O      13.666843733800013     11.836383463000006     12.376600610200008
Si     12.145872369700012     11.499488390600019     12.082446769100001
O      12.739376126000010      7.097604291100007     11.875686279000007
O      14.888234118500007      8.595145912900005      1.249003756600000
O      12.500355443600018      6.435619250999996     14.438512448700012
O      12.743101806100006     10.085279767499994      0.666597702700000
Si     11.557666608800020     10.062984296900002     14.525844032800006
Si     13.672167219000015      9.470202577100002      1.832025193900001
O      11.744195825600011      8.754544144000011     13.609247751500003
Si     12.832286767899994      7.599268883600018     13.378890307500011
O      11.494160396300032     11.327057866200009     13.540314303300011
Si      0.421332539400007      7.766061369400011     14.886644772000009
O      14.322297484100025      8.087980153300009     13.696090516300002
O      10.081327163400013      6.258867109400012      0.504522244199995
O      10.152376647300011     10.001385161800007      0.332945673200004
O       0.544606771000018      6.185436034000013      0.247142940099993
O      12.056496029600009     10.154268249000010     11.209335943999996
O       1.220232397100013     11.340693998300003     12.792839857100017
Si      9.392410229900012      6.985316505200005      1.765637702799993
O      10.583185313700008      7.253671264500012      2.837119011000000
O      14.234388091000019     10.733228341700016      2.642660718600004
O       9.430214049900005      9.672292505600010     11.210019638000006
Si     12.051827012500006      6.856908438900017     10.445822770700008
Si      4.206899652800007      6.189329525000010     11.991822719500000
O       8.573787660100018      8.261753064700015      1.154824500600002
Si      6.515082990800017     12.171538672100013     11.027563473099990
O       2.099754810500007     11.742353721700006      0.429149126199987
O       3.443461472500014     10.042416309000007     13.774089382800003
O       8.337947300000010      6.012224226700006      2.492188154500000
O       8.284105687999999      9.081304645500001     13.475130851900001
O       3.366914995600015     12.586076462200023     13.277666867100006
O       7.593251464900023     11.491730509500014      2.651622788900007
Si      8.004600269600019      9.513866916300016     11.932714258300006
O       5.283855769800001      6.596563353899999     10.880526819700004
O       7.185726564300018      8.338582725400006     11.203666482200008
O       4.365671182800016      5.928977915000011      2.250747576699999
O       3.873071809000014      7.514364558900005     12.865643638300011
Si      8.642466663400004      9.489112543800008      0.075184295500004
O       1.856485399900015      8.259373831000007     14.438948754500011
Si      4.462376567400012      6.329064641999993      0.694374234799986
O       5.855623259800015      5.772866779700013      0.080072965600000
O       7.181589676800004     10.910429995800024     11.785298816900006
O       5.689517641000005     12.406733724300000      0.749754158499995
Si      7.232271058600008     12.020540556100004      1.164517349299994
Si      3.395890007600006      8.453341944100021     14.086483703300001
O       3.160873293600015      5.610277881500012      0.002422940500003
O       2.854430059600011      5.862275548800016     11.180157468400001
Si      2.501705608500016     11.369429539400000     13.819263389900005
O       7.673954174200015     10.766731798700011      0.265644642100002
O       4.285393433400020      7.925051706500014      0.416526802899990
O       7.769980616100005      5.833161625200006     10.459492672400009
