216
14.946 14.946 14.946
 Si         2.7432273911        5.2940572788        4.1625957870
  O         3.4865112856        5.3996802857        2.7249096142
  O         1.8364858198        3.9888207595        4.3155816906
  O         3.8255975620        5.1528465060        5.3307808455
 Si         0.8268013246        2.8405966978        4.7528626342
 Si         3.1589187668        6.3408762184        1.4442337131
  O         1.3999324120        1.7443955286        5.8145531851
 Si         4.3374489615        6.0740321366        6.5386446742
  O         1.9210464340        6.6842080415        4.3255360953
  O         5.8959182860        6.3116022481        6.3119617452
  O         2.7342634141        0.6636977257        1.5790263985
 Si         1.3680761764        0.4997397744        6.8688565410
  O         6.9034285523        1.1473305226        3.1633932335
 Si         6.9710455495        6.9880307349        5.3368599475
  O         4.4096086569        6.8863537513        0.5826128998
  O         2.1554533199        5.4994977534        0.4912948191
  O         0.4049888643        2.0654464827        3.4032614700
  O         6.8950024601        2.6650649571        0.9958031797
  O         5.1488587200        1.0870150841        7.3113093668
 Si         6.1406774132        0.0519045050        6.5853970035
  O         7.2147935883        6.1396280614        3.9868440810
 Si         2.5370582086        0.7120989408       -0.0317092079
  O         3.4115442149        7.3808188908        6.5594924313
  O         2.4863831285        7.7106152109        1.9977149963
  O         7.6405783864        0.6646274652        6.3969964680
 Si         7.6681569007        2.3103957737        2.3619772738
  O         7.7264597278        3.6493675779        3.2347871419
  O        14.4350060837        3.5761426116        5.3239294768
 Si         8.8700830976        1.6407755546        6.7922642913
 Si         9.2749485579        6.3468844265        0.6049100572
 Si        13.8886729211        1.4587713026        3.0876967099
  O        11.6890624778        3.7352356032        5.4865175293
 Si        10.1333086924        4.1699422992        5.6769029645
  O         8.8076184551        5.7237732312        1.9974908630
 Si         8.3444354170        5.1317264553        3.4023776942
  O         9.6283486246        4.9876380432        4.3828030274
  O        13.0218688014        1.6444503126        4.4696195791
 Si        13.0203808575        2.8258329407        5.6092363588
  O        13.1990999193        2.3262063840        1.9072583517
  O         9.1164455818        2.9122519017        5.8290647687
  O         9.1331154884        1.7405591483        1.9151852017
  O        13.3690252885        6.2325085338        1.1721770655
  O         9.9714848559        5.1434132722        6.9750780979
  O         8.3713571023        6.9799454769        6.0555598507
 Si        12.9608027414        2.8486073494        0.3986336315
  O        10.3028235359        0.9197450253        6.7295619908
  O        13.1225668259        2.3216135386        7.1415922079
  O        10.8722194514        6.5603159409        0.5836622069
  O        12.0226651482        4.1650961518        0.3251932501
 Si         9.4170423753        6.6533626179        7.1883415065
 Si        12.2075355162        5.7717486391        0.1383876000
  O        11.2264158219        0.1734559554        1.2375804663
 Si         9.6749298569        0.2512814140        1.5844528606
  O        14.1127419534       -0.0833764231        2.6581050989
  O         5.5540904205       14.8611521137        5.1020144222
  O         0.0673624280        7.6328044332        2.8976098389
 Si         4.8450688439        8.4263588621        0.3069891024
 Si         6.1598966877       14.7449194286        3.6302304419
  O         4.8975674347       14.5371290373        2.6711155744
 Si         1.5788389437        7.9067845173        3.3218993481
 Si         3.3151708797       14.3953474748        2.4866796141
  O         2.4159867152       14.2701118090        3.8202250539
  O         1.4093723106       14.0082801068        6.1238282772
  O         5.8342616848       11.5544524134        1.3898094839
  O         3.1378658629       13.0333529787        1.6590856255
  O         3.8208853919        9.7170308733        5.5740285778
  O         5.3164409511        9.0434247793        1.7344009645
 Si         3.0149292071       10.4291598802        4.3877015810
  O         6.5633237043       10.5411028850        3.6429896673
  O         1.8348494025        9.3942480902        3.9136907850
 Si         5.4198840131       10.4597653846        2.4999682503
  O         3.9864582929       10.7138090505        3.1519316037
  O         2.6421389017       11.8752656893        4.9898658577
 Si         1.7057555265       13.1713281735        4.7774068340
  O         6.6371250048       11.0500463899        6.2234089859
  O         6.4819426335        8.5118440235        5.1537346980
  O         0.4004589265       12.4536710229        4.1514126777
  O         0.5911189495       13.0335198600        1.1652760020
 Si         2.0468957522       12.9094366528        0.4863267450
 Si         3.4576702373        8.9324278971        6.9218359159
 Si         7.0862215816       10.0060510166        5.0706141556
  O         6.1403235101       13.5292707312        7.2953594077
  O         7.1524682503       13.4605088165        3.6536698952
 Si         7.2781140663       11.7317592281        0.6779099537
 Si         6.7001789790       12.0159109327        7.5222585591
 Si        12.1255302018        7.9496032615        7.1071473012
  O        12.7071374465        8.1399475534        5.5599060186
 Si        14.1086917321       13.5660617937        1.6724968470
 Si        12.5643008413        9.0349906598        4.1644344715
 Si        10.0258662432       10.7243078237        4.8850986764
  O        14.3645669731        8.4593606168        0.5104484683
  O        12.6208003000        8.2233600571        2.7477470452
  O         8.6945156288        9.8704486606        5.1544491312
  O         8.4711566651        7.7295753034        0.4039707166
  O        10.5603255718        7.7340184673        6.9009656714
  O         8.3858057723       12.2024821419        1.7391696437
  O        13.3554387968       14.0394117800        0.3279184373
 Si         8.6051189384       12.9602767435        3.1292858276
  O         9.4618546565       14.2933110267        2.8893320387
  O        11.1271669927        9.7997347326        4.1453295564
  O         8.9697769105       14.6031812159        0.2650686035
 Si        12.0668727285       12.2147838359        6.3886510093
  O        13.7828940282       10.1349103338        4.0637057138
  O         9.4768144767       12.0254544260        4.0891875658
 Si        13.8278166339        7.6480987880        1.8156141210
  O        10.7941121489       11.2237846914        6.2228092717
  O        13.4466639197       12.3104291973        2.4724852240
  O        11.6112949345       13.7276566855        6.4808278304
  O        12.9484094642       12.2814979358        5.0696281729
 Si        13.9104155193       11.7519688890        3.9242311635
  O         7.8010066292       10.3046789091        0.1661525954
  O         5.5981799558        4.0761098906       10.8652487495
 Si         4.3135779359        3.1295606718       10.6494514337
  O         3.8211404649        2.5019264948       12.0345324129
  O         3.1587585846        4.0740702935       10.0547756371
 Si         4.3417159891        2.5838688382       13.5492966302
  O         2.9855930452        5.8963600586       12.9534411884
 Si         2.9741642238        4.4384356327        8.5081077266
  O         1.5756263773        5.2350073707        8.4539258111
  O         4.4657168355        1.9118201404        9.5844768075
  O         1.3383561494        3.9890229167       13.2848788618
  O         1.2589721096        6.1492168885       10.9617378413
 Si         0.7040314415        6.1596822457        9.4613876792
 Si         2.5145022541        4.7999725254       14.0262491535
  O         3.7284187127        3.8180500165       14.3626687644
  O         5.9098269139        2.8296079430       13.5243631725
  O         3.9100165254        1.2342305596       14.2780363879
 Si         1.9685350962        6.8769360809       12.1948442210
 Si         7.0737066039        2.2105954382       14.4124643918
 Si         3.8573591715        1.6488320343        8.0967138274
 Si         0.4399890924        2.6999271118       13.6117820629
  O         1.3272351983        1.6532490938       14.4511035678
  O         6.8125779861        0.6201680423       14.3682548404
 Si         7.0183858194        4.8319140003       10.8487622993
  O         2.6478356524        0.5886300689        7.8777132464
  O         4.1565270465        5.3910028860        7.9773390440
  O         6.9738199277        6.3857845125       10.3899468576
  O         3.1619933136        3.0678803481        7.6500404729
  O        14.9389417485        0.5095217086        7.7188597265
  O        14.2978838770        3.3151500501       14.6134520673
  O        14.7776065119        1.9984393363       12.2886442512
  O         7.7130371726        4.8098727153       12.2893387244
  O         7.9709042303        3.9665278395        9.8815856636
  O         8.9746415153        5.2940098209       14.3830694027
  O         8.4732092253        2.7518848367       13.7823108749
  O        13.9522588469        1.8396885487        9.7280959065
 Si         8.8923964945        4.2269704393       13.2044347205
 Si        13.5226760376        1.7385591759       11.2923055348
  O        10.2835852795        4.1548516659       12.3727881000
  O        11.6418969681        5.0577738964       10.2065062642
 Si         8.7505058516        2.5678728989        9.7865414022
 Si        11.1888054955        3.7620349512       11.0819550374
  O        10.3018152630        2.8236836454       10.1203898182
  O         8.2160936920        1.4021154499       10.7939132069
  O        12.4498692868        2.9096831734       11.6123882099
  O        14.1935636482        5.4852069302        9.5485630957
 Si        12.7370293511        6.1548219868        9.7127115796
  O         8.5538424271        2.0732885180        8.2947416519
  O        12.5464799109        6.2229460076       13.5429146086
 Si        13.6144979858        1.2581293180        8.2593090035
  O        12.5283386532        6.8032473193        8.2209944480
  O         8.7221582465        6.8887060191        8.6068935593
  O        12.7841431757        7.2172090961       10.9574125426
  O        12.3160719275        0.3196973984        8.4623222957
  O        12.9343100802        0.2416256129       11.5464082725
  O        12.4594495991        1.5811770277       14.4618612371
 Si        12.1236477931        0.0460443922       14.8536017076
  O         0.8268214327        7.2958372713       13.2818628921
  O         0.6626207884        7.7115513334        8.9694027351
  O         2.9058553962        8.0550197269       11.6381104777
  O         0.9859520404        9.7130559156       13.8528103141
 Si         2.5186345184       10.2152490460       13.8869847004
 Si         5.5609587452        9.7103078270        9.1545396037
 Si         3.1624331339        9.5525139058       11.1095638540
  O         2.9978425180       10.5356611773       12.3740291552
  O         1.9920578578        9.8048660920       10.0333983006
  O         4.6382070574        9.7188470204       10.4777313511
  O         5.9690054886       11.2167169862        8.7249029388
 Si         1.0948853715        9.2671281520        8.8075725694
  O         6.8832675435        8.7980576763        9.3724275515
  O         4.6473385096        9.1272505989        7.9721877383
  O         6.1452337645        8.4676213518       14.2812937340
  O         2.2350096366       14.1545018671       14.4242240853
  O         3.5778787895        9.2163582901       14.6051360237
  O         2.4062451411       11.5628144257       14.7018332428
  O         7.1450676176       12.8627419291       14.4688003687
  O         2.0037769946        9.3871532567        7.4722678840
  O        10.8928484363        7.9736337054       12.6176116413
 Si        12.4390317152        7.5031564018       12.5262695752
 Si        11.0871672650       14.7507113204        7.5659066630
 Si        11.1737050651       11.3883750599       10.8007977983
 Si        14.8830055931        8.5028396840       13.9204538246
  O        13.5250734024        8.6169639780       13.0285425151
 Si         9.7095608456        8.9001752054       12.0217150785
 Si         8.7357898577       14.8673190490       11.2178526884
  O        10.3461984636       14.9416571233       11.2678737588
 Si        11.6465217005       14.2874750343       11.9522752927
  O         8.2221689213       13.7018366912       10.2087599863
  O        12.4506157753       10.7119658668       10.0664092130
  O        11.4541496297       14.3514321148       13.5516752077
  O         8.2258641933       14.3643210902       12.6384586926
  O         9.0518392515        8.2210194431       10.7131135276
  O        14.7328225418       10.2036250473        8.7285180850
  O        10.0441740152       14.0606744619        8.5390178323
  O        10.0530765893       11.7825779188        9.7179198379
  O        12.8815170087       11.8042490432        7.7154585274
 Si         9.1043177930       12.9110524944        9.1089018048
 Si         7.8848426660        7.5891320453        9.7880305034
  O        12.4514573841        9.2962233211        7.8816579672
  O        11.7135864106       12.7184871341       11.5458969004
  O         8.2304335712       12.2098021343        7.9710512140
 Si        13.1541698656       10.5079238571        8.6311879364
  O        10.4011001596       10.3481403644       11.7750804611
 Si         7.7862806371       14.3108561789       14.1661321978
 Si         7.7197262040        8.8429926753       14.4509759826
  O         8.4715600090        8.9687939206       13.0400496151
