216
14.92 14.92 14.92
 Si         4.4584562401        5.6695326326        2.0708386605
  O         1.9987712471        4.4850238686        5.1664379871
  O         4.8156040593        6.0472507078        3.5639251025
  O         4.5488717412        1.5748893281        2.9015797868
 Si         4.4605119572        2.5310633255        1.5979811063
 Si         1.8899928861        1.0533490098        0.7759857306
  O         4.1411623519        4.0871792832        1.9146190854
 Si         5.7914222632        1.0441691352        3.7806930259
 Si         5.3890928795        6.0917357582        5.0395630119
 Si         3.1320898681        4.4129039424        6.3826939205
  O         4.5772286350        4.8976121393        5.8065992836
  O         5.6309955106        6.1326635600        1.0793754241
  O         3.2380600065        6.6392420853        1.7428732847
  O         3.2503042768        1.9107641146        0.7402635916
  O         6.6351668446        2.4041426602        3.9831536445
  O         0.6569706390        2.0935210501        0.8379157652
 Si         0.5286180034        4.0600608625        4.5598474104
  O         7.0069118310        6.1187953686        4.8853321006
  O         5.8811195803        2.4847460509        0.8232940901
  O         0.4232744350        3.6499204319        2.9706215238
  O         0.5024661877        4.7220180073        0.4968951511
  O         3.2347501228        2.9052253349        6.9516843485
  O         5.3948945829        0.4248391499        5.1974977781
  O         7.4807212427        4.5473164575        0.2521455930
  O         4.3001822231        0.5959203162        7.5525151515
  O         1.8257048131        0.0793834028        2.0697914794
  O         5.0520918319        7.4583966630        5.8033901953
 Si        14.8915368784        3.4561301968        1.3896802305
  O        14.9915001207        2.8725884224        5.5582443195
  O        14.2668745727        5.1334080664        4.7286118894
  O        10.0327261530        3.8917073693        6.7825645994
  O        12.5233246754        3.3074936442        6.7083805384
  O        10.7723415900        1.6589587751        1.1730835615
  O        13.3434347160        6.4602248294        6.8622397195
  O        13.2600361560        3.2216901423        1.1594337134
  O         8.4533142980        4.3085956152        3.8211466313
  O         9.3712659116        6.0653732612        5.8031928667
  O        13.0869137558        0.9024225742        2.1076068154
 Si        13.5790339113        2.2745365181        6.0280084228
 Si         8.5341068990        5.7692920530        4.4686052187
 Si         9.1961355380        1.3193549892        1.3299495464
  O        12.9295601956        1.5832939814        4.7173677648
 Si         8.2012010293        2.7479129845        3.9542635834
  O         8.8609866328        1.9871391228        2.7322474328
 Si        13.4750553936        6.4146952804        5.2513785647
  O         9.4708650370        6.5429961314        3.3899897614
  O        12.0104828587        6.4633258125        4.5584036117
 Si        12.3831918319        1.8218811961        0.9903636813
  O         8.8593707314        2.2525559760        5.3034537736
 Si         9.4582253072        0.9651727070        5.9939919288
 Si        11.0186935005        7.0529019885        3.4038062500
  O        11.7647142053        6.7998160107        1.9884212177
 Si        13.2672068792        0.4408421676        3.6286510581
 Si         9.7520439999        5.3914724995        7.1890737108
  O         8.2963177497        0.4201021936        6.9521515740
  O        10.6932610059        1.4155936698        6.9590179081
  O        13.8439817162        1.2421624618        7.2153664070
  O         8.3824096449        2.0685120142        0.1575505956
 Si         4.9672176051       14.5202488436        6.5038745114
 Si         2.7013876248        7.6007966027        0.5793492729
  O         6.6317922669       14.8400945364        2.9928140990
  O         6.1237446038       13.4246905157        0.9099440966
 Si         5.2810347056        8.8206122291        6.6171200165
  O         4.1561706319        9.8603554678        6.1277552630
  O         1.3259957449        8.1243873809        1.1600911606
  O         3.8882803436       13.4253078262        6.0437499308
  O         1.9126532325       13.4301833964        4.2299476877
 Si         2.3270551898       13.1053014530        5.7665587929
  O         1.7335150846        9.0299979142        5.3884309364
 Si         2.5685532393       10.0405120131        6.3501714269
  O         2.1449163707       11.5291795193        5.9695329777
 Si         0.9906062002       14.0017091969        3.0332202855
  O         6.7900991322        9.3670921782        6.4472411126
  O         1.4304273200       13.9273565795        6.8479404125
  O         0.4945122506       10.5158011213        0.8356487202
 Si         0.2063065594        9.1409635574        1.6066984255
 Si         0.2709515764        9.0098657988        4.7010331075
  O         0.3355640391        9.4508244550        3.1687705366
  O         0.3271026548       12.8542325311        2.0843367278
  O         6.2091120008       13.8472918565        7.2910682174
 Si         7.3166449584       13.8637893648        1.9174917587
  O         3.6476401364        8.8643378689        0.1605937368
 Si        14.9246009782       12.0313089632        0.7240201740
 Si         9.2069267395       11.6699855921        2.7201539301
  O         9.8580396337       14.9349127359        4.7415275559
  O        10.8652723036       12.8497786668        5.6465786963
  O        11.5797625740       10.1968394449        5.4665719575
  O        14.4271168806        7.6168469226        4.8020540859
  O         9.2946494136       10.6936249693        3.9979223024
 Si        10.1984175350        9.9962113966        0.1929620427
 Si        11.8371144875       12.7863996072        6.9183270788
  O         9.4476390982       10.7682548171        1.4045120772
  O        14.2575210314       10.0346610253        5.4813844994
  O        11.3472177537        9.0373280315        0.7444393036
  O        10.8650727598        8.6315167360        3.6387145367
 Si        10.7958942291       13.6993931378        4.3008187666
  O        10.2776342019       12.8437529437        3.0505415010
  O         8.6188215678       14.6893952140        1.3264235882
  O        14.7640087836       14.8360091828        3.8064170163
  O        12.2623357576       14.1615078460        3.8984297055
  O        13.1698117289       12.0229877873        6.4790487490
 Si         8.2895287112        9.1459545112        6.9932857002
  O        13.3348902877       11.9409864009        0.3920417663
 Si        10.2624926091        9.6292470125        4.7325028998
 Si        12.3291635910        7.7778650852        0.8280661808
  O         9.3025462020        8.8780640280        5.7839744187
  O        13.7375300457        8.4390912278        1.2407686008
 Si        12.9520117961       10.4452787670        6.2678849880
  O         7.8044085139       12.4556769939        2.5661441813
  O         5.0494250572        3.7246297527       11.4361200282
  O         4.0626324878        2.3182603991        9.4416171344
 Si         4.0507850140        2.4882335012       11.0480543691
 Si         6.2531269495        4.2460935216       12.3740460110
  O         2.1618827687        5.2106566871       10.3470364796
  O         4.5611971814        1.1634597863       11.8525911051
  O         5.7962498276        5.4030617499       13.4307818964
 Si         1.5468971288        4.1579306144       11.3937772608
 Si         2.7058609586        6.0810371152        9.1154323544
  O         1.5013439513        4.5638377954       12.9461294446
  O         2.4877720361        2.8311621132       11.3666628046
 Si         1.0604645958        5.5623013416       14.1239730515
  O         4.0578967191        6.7098190188        9.7025063289
  O         6.7177055910        2.9753489080       13.2655641432
  O         1.8943468290        1.1413576845        8.3708875365
 Si         3.3621410543        1.7730686245        8.0875199388
  O         6.5244500524        6.7131220069        9.3726169657
  O         2.3314311740        6.5429237821       14.3350180012
  O         2.8167056476        5.3014793864        7.7062480194
  O         1.8197360681        0.1731609625       14.3370439161
 Si         6.6061674846        5.8556468043       14.7778369038
  O         1.7286736946        7.3011196093        8.7813086268
 Si         7.1149437385        3.0007549304       14.8301362905
  O        -0.0016920521        4.0632424803       10.9420468368
  O         7.4554006335        7.2051728062       14.5694605272
  O         7.5217740005        4.8847542217       11.5994064772
  O        14.8420898016        6.5565804853       13.6013187365
 Si        13.4914751103        4.7939805350       10.7701033285
  O         8.9504662292        6.7186482739       10.2812582746
 Si        10.9492836229        3.3723765102       10.5855370342
  O        12.4332348791        3.6454572111       11.1134985347
  O        10.5280976207        1.9088279087       11.1002315007
  O        13.2627011972        5.2291973223        9.2187930564
 Si         8.9337754848        5.6765044626       11.5012335173
  O        13.1760870270        6.0439364832       11.7707057611
  O        11.0220565170        3.2385070021        8.9755711677
  O        10.0329470658        4.5470106448       11.1875876464
 Si        12.5727596657        6.3463540589        8.2730503237
  O         9.2011841941        6.6388267370       12.7813803694
 Si        13.4104473911        7.0015595534       13.0582519786
 Si        11.4116603284        0.5930308699       10.7702166656
 Si         8.0551799513        6.7019389079        8.9624818552
  O         8.4502829121        5.3855644685        8.1346774510
  O        12.4234911319        0.8308405301        9.5253818683
  O        12.4227537496        6.9545022522       14.3501897706
  O        12.3572877478        0.2672121996       11.9981458137
  O        12.5124727981        1.2448762751       14.4206561487
 Si        13.2831535113        0.2188392271        8.3120579328
  O        11.0153107672        6.0491647488        7.9521236693
 Si        11.1078000679        2.9180599351        7.4086244844
 Si         5.2785652861        7.7122360957        9.5176066811
  O         0.8372841208       12.6733350910       14.4195879935
  O         4.3893695436       11.5236216330       14.6754645336
 Si         5.4182171005       12.8085005773       14.5207608359
 Si         4.7199233970       14.5033025714       12.1751217068
 Si         1.2602438234       14.5631455530        8.3292046004
  O         4.7253709748       14.0831381771       13.7551993917
  O         6.6340285256       12.2714144113       13.6041060807
  O         1.9934034404       13.6756025407        9.4391281939
  O         5.4756530969        8.7823450455       10.6974653592
 Si         6.2603314430        9.5427968910       11.8808858649
  O         2.1513110186        9.1945778747       10.5257681231
  O         3.5449717968       13.7572413488       11.4405285267
 Si         1.8213165800       10.2666087830       11.6953404273
  O         2.7375650859       10.1148371773       13.0099193260
  O         5.3068732296        9.6148267188       13.1762011821
  O         2.0799644270       11.6773698877       11.0152897726
 Si         1.5628480221        8.8683635715        9.0507531286
 Si         2.1331815759       13.2555005955       10.9658948142
 Si         4.0062538960       10.0528267977       14.0160722871
  O         5.9899813648       13.7484457548       11.5263228643
  O         1.0808622163       13.8503507534       12.0258400115
 Si         0.8255062580       14.0599088897       13.5951793704
  O         6.6500374847       11.0527425829       11.3734994332
 Si         6.9144070565       12.5220517056       12.0471276061
  O         5.0524104078        8.5536257805        8.1811895179
  O         2.2462152029        9.7615488365        7.9035636497
  O         0.2707019223       10.1887038849       12.0863035923
  O         7.5411657569        8.6318031882       12.2789103398
  O        14.9173395722        9.1284547909        8.9613070088
  O        11.9294828954       13.5083700934       13.8455983985
 Si        12.7242141219       14.8705757466       13.5036734818
  O        12.2676914560       14.1695955098        7.5457252080
  O         9.2772046017        9.0427715072       14.1777074059
  O        13.0155396589        9.9589864241       10.4471550666
 Si        12.2869892486       11.9482831861       14.0575694026
  O        14.6493370725       14.4963368647        8.8509692456
 Si        13.6044410659        9.9844310538       11.9612194967
 Si         8.3969724213        7.9040804982       13.4481259390
 Si         7.7191687469       14.1027958882        7.7790947930
  O        12.7680943842        9.7797491742        7.7112782631
  O        11.0053934208       11.9115167789        7.9715165668
  O         9.2094667769       12.0828075925        9.7769658710
  O        12.9337891142       11.2013080071       12.7702326570
 Si         9.4298469729       11.7609281582        8.2300620360
  O         8.3740061591       13.1761821758       11.8409896049
 Si        13.3289878570        9.1649567834        9.0745474902
  O         7.9587350862       14.3290686703        9.3750575251
  O         8.7988738131       10.3646443245        7.8723603504
  O        12.6789206586        7.7021703179        9.1253803387
  O         8.3693147033        7.9442569753        8.0306720899
  O        10.3616780604       14.3334010531       10.5194499606
  O        14.2664727998       14.5945073064       13.6843264844
 Si         8.9791998220       13.5465868964       10.3977578660
  O        10.8904168148       11.1852265494       14.2797480082
  O        13.3367026919        8.5355462677       12.5992408910
  O         8.6184312067       12.8442169153        7.3663338079
