216
14.847 14.847 14.847
Si     11.071133397500001      3.380747553399979     10.946088827999985
O       9.750597381799988      4.251575025999983     10.676427373599996
O      11.432197545299989      3.617620128700003     12.484786880499975
O      10.679366081199998      1.886768062499980     10.496700816899986
O       6.885239906899992      2.120546524599978     13.318607114199979
Si      8.174417887500010      4.599947281599968     10.643402053599980
Si      7.500818593199990      1.849375941999975     14.762739906899983
Si      9.382386728199993      1.012085437599965     10.070889599399978
O       8.146773794699996      1.799475164499995      9.357870090499981
O       7.059445186999986      3.784424378899999     11.482983845399973
Si      6.159564875900005      3.409663446999986     12.759273870799971
Si     11.691791338999996      3.708385756299988     14.057607440899965
O       8.126648773300007      6.077189575799979     11.247405655899987
O       7.722445989500005      4.368807771999990      9.106895886099986
O       6.227536238399991      4.558221686099992     13.876214349899984
O      10.343863072899991      4.190475263299979     14.801948457599982
O       8.793825895999998      0.968065597399995     14.317636787699970
Si      5.748674421999989      5.969715296999966     14.453293888199976
O       5.909239774700004      6.992744050899991     13.231906430499969
O       5.697756368600010      2.783234076699979      8.853550795599991
O      11.847807957699988      7.126210805199990      0.522341203999983
O      12.156360989299992      2.233272852399995     14.473174098199991
O       7.886331655699990      7.155039729499979      8.962963382399979
Si      8.140230589400000      7.500652038400005     10.520441972299972
Si      7.296845322799999      2.917956662200000      8.528044981599981
O      12.409672917999989      3.698548429500007     10.093934599299986
O       6.308685683599996      1.305628698699979      0.862838921199991
O       7.971869841099987      3.204365837699982      0.611161945099993
O       8.870449956499993      0.486296430999992     11.490318300899990
O      12.086650940900004      7.490686219299990     10.836577349499970
Si     12.598803530500007      7.441544958299981      9.280703625599978
O      12.817423342600001      4.794137720299972     14.475599200999966
O       4.633976193299993      2.943740210999980     12.576592288199993
Si     13.098311622199999      0.936973433299991     14.396868432799982
O       3.434750745400008      3.450247782899995     10.498456395799993
Si     13.873143655500003      3.011801509799973      9.933683447599984
O      14.320455609600000      2.381345455999978     11.342975201699991
Si      3.140235969099999      3.318925018899974     12.082179184199973
O       1.917297743999987      2.283142622099981     12.401239616499975
Si      2.747224993199999      5.404080209799971     14.333778916399968
O      14.557848571199987      1.391110975299987     13.801073568499968
O       2.769173394300009      4.680230389199984     12.889249978499985
Si      0.440862357999997      1.562109471599983     12.346547217999994
O       4.190646442000001      5.923675870999979     14.803826558099985
O       1.774532414799976      6.674554666299979     14.225478099599975
O       0.050140657999997      4.185219985699989      9.529123239199981
Si      4.089902116400004      3.050770308699981      9.055875853699989
O      13.905676395400002      1.887039246999973      8.767323996900002
O       4.070961248600002      0.632327222699981     14.536437066199978
O       2.266755468600005      4.444598459799977      0.685618135099996
O      13.665596592500004      6.324910700899980      8.775371816999998
Si      0.854656023700007      7.463707721099980      0.438287545299979
O       3.340470313699998      1.708433109899987      8.609048959599994
Si     12.935814828200005      5.962849879999966      0.748048731799981
O      14.396606123399998      6.586350002499995      0.689296364599988
O       0.554992705299997      0.065632749199990     11.749209798999978
O       9.941161916799999     14.737335492599975      9.035303501899998
O       6.905841680899999      8.314421366699996     11.149126345599980
O       9.538582224900004      8.234180405099984     10.849033701599986
Si      9.283108239899999     10.987316221299990      8.841964043799992
O      10.990437200600002      8.153222189499989     13.135557025399981
Si      8.779519036700007     14.829420674099984     13.012775662999987
O       7.964243740599993     10.788533027599996      9.767586150900000
Si      6.708180578599995     10.507480005099993     14.605188163199982
Si     11.225995129299999      8.448937397299980     14.706715764099982
O      10.011256258299985     13.837707449499977     13.222747247299969
O       7.302119794799998     14.229767865699980     13.066134565599967
Si      6.472684974000010     12.885749678099984     12.988227011699987
O       7.230041491899998     11.868264273299987     13.967618164799978
Si     11.534751662400001     13.375912521999986     13.084081233499980
O       6.485911405900008     12.272008844299982     11.504812892699977
Si      6.559116181900008     11.553177365499991     10.072550597599983
O      11.355372586300007     10.044466022599982     11.408818823399983
Si     11.648482780699991     11.452761205199986     10.645410730099988
Si     10.985538342300005      8.468086806899990     11.554559532099987
O      10.388759490399984     11.788140353599976      9.690338912399989
O      11.842256382899999     12.695404142699992     11.653403159399982
O       6.731221770300013      9.394354368099984     13.479252723499984
Si      6.019863444399991      8.387503097999980     12.486367166399994
O      12.177849974899999      9.715362192999985      0.116123210499984
O      11.680417668400001     12.182492237699982     14.138920809999977
O       6.397747572700001     12.686155685999989      8.948573853599983
O       5.240846495000013     10.785896566099984      0.358548339599983
O       9.862462196299990      8.808466445299992      0.607706670999975
O       7.629500958200008     10.048065557199980      0.938875496399975
O       5.318423644799998     10.536183070999986     10.012534305199994
O      12.502386799399995     14.639382944299991     13.404240177399981
Si      1.811237438700000     13.988296337899996     11.352552568999988
O       0.458089498000003      8.900269308299997     14.706083878599985
Si      1.507953245399995     10.840382456699976     11.460985551599975
O       2.797894111399993     10.293945067199974     10.673127554099992
Si      2.996220394099999      0.148428849199987      8.555487975999982
O       0.197040323600006     10.054795862599981     10.923947886499979
Si     12.760377629299995     11.192756051699980     14.763888269399969
O       4.999460861300002     13.177973348999974     13.552838426899980
Si      3.691184981200009     14.045520260399989     13.890036052499971
Si      4.201733318100000      9.522394073199992     10.591972592999989
O       4.174956015399991      8.236497486399983      9.609309218499989
O       1.108166845600000     11.296478916499984      0.682952285999994
O       2.929310647800007     14.243902344199981     12.490601984599987
O       4.583214336200000      8.978584062399984     12.064608446599989
O       2.772128348099989     13.260168833699975      0.115046272299977
O       2.350575625400001     14.500036147800003      9.934285984199979
Si      0.641504725500002     10.428739723299994     14.264903989199968
O      14.062599746799989     11.039975882699995     13.813050192499963
O      13.409447565499997      8.822478102399980      9.105523708099971
O       1.679758932399999     10.546555787999978     13.041847371399980
O      12.998342506300002     11.286347903999996      9.770395595199973
Si     14.150867053900003     10.169460361999985      9.573174388799993
O       1.372590392100012     12.439795839999990     11.249894150899985
Si     10.655253044099993      2.617127198399993      3.573952384799982
O       9.944306707100001      2.945696999599999      2.182065955199989
O      11.431745959599988      3.956059444199981      3.993074718399993
O       9.525994478799984      2.530896362199993      4.734790350099980
Si      8.720147319600008      1.921972807299988      5.991772337499987
O       7.798792970700009      2.864748644799977      6.967738122099986
O       6.972509269099993      6.084890423899984      3.583145435199968
O      11.597722385700001      1.299152540499983      3.257728071399975
Si      7.639781212499996      6.409946445999966      2.149674599499995
O       9.855470628800013      1.235642480699979      6.881305615099993
Si      6.086712696799995      6.650589886899987      4.812452529799975
O       7.725005340799991      0.831370925199969      5.394127916099985
O       8.807558011999998      5.353614707799997      1.784533112599985
O       6.891353724199994      6.427345480399993      6.225975388999980
O      11.834031122599999      6.630449636499986      4.331788672199999
Si      9.277943117000003      3.951761578399998      1.140963656899989
O      12.152994013800006      0.402236750399968      7.615010009499989
Si     12.401570773499996      5.210983369599976      3.784570409999980
Si      7.423499999999999      7.423499999999999      7.423499999999999
O      11.196200481600000      7.330739402499992      8.441937951899979
O       6.563872197499996      6.348490698999974      0.937955725799982
O      12.736245186599996      5.341444316799996      2.220174068299976
O       3.921677981699992      6.761365784299986      7.460988041799996
Si     12.911682789599991      0.470564869299984      2.687986731199984
O       3.933474091300001      2.627077777599984      1.442489670399985
O       4.664198343600009      5.916437151899984      4.732005415899986
O      13.672843544600003      4.772232845099976      4.653927623999990
O      13.170626783399994      2.609643161799989      6.310328974999972
O       3.101204747600006      4.448140085299991      3.271130008299990
Si      2.702472553199992      3.568938751799982      1.960460096899977
Si      3.119695107300010      5.506791015099960      4.505712985799996
O       1.354421535399994      2.782500468999998      2.355419592099969
Si     14.240755312600010      3.694340506899984      5.701397313399979
O       2.603698923400008      5.011470999999974      5.956615053899975
Si      0.755404229399999      1.934574888199990      3.589721603599988
O      14.703154663900003      4.585656309999984      6.956795546099982
O       0.551105718599998      2.869134238499985      4.905854548499984
O      14.165172182699990      1.304087189699995      3.252792105299986
Si     13.415187216200000      1.344046242599997      7.318961486399988
Si      2.899761913800008      5.505581409499985      7.468824453199988
O       2.112421298500005      6.750142865299999      4.225632639999977
O       1.859778929499999      0.766371275299979      3.758910929999972
O       1.539560103300008      5.927326279799978      8.273252042399990
Si      4.695755437700000      1.249976259899972      1.046376187999979
O       3.680528541000004      4.275397067299991      8.123061506999987
O      14.481683080799996      0.405596496999987      6.556009076599991
O       4.421072565000006      0.242408691099983      2.256803610199985
O      13.082779996599999      0.398462841799984      1.075526982399972
Si      0.038098888599988      5.313473893299968      8.380008049799988
O       8.214869671200008      7.900465855699983      2.342000869099986
Si     10.606337388099986     14.845397659999991      7.556275547999998
O       8.880790174199982      7.905354070399993      6.867790524499990
O       6.084204755999997      8.316443431699993      7.695272711299984
Si      8.771897745800002      9.258419532599993      1.690230738999979
O      11.353414101699991      8.482572637099985      6.226130637299980
Si     10.341035119999994      8.323453254699999      7.467855632799998
O       6.151115254000003     14.249681431999992      4.087328699799984
Si     11.952453930399992      8.181442719999993      4.762541896399990
O      10.444850133399997     13.514951074399999      6.641698536999983
O       9.210456753799997     10.372306066499984      2.769780507999982
O      11.091732716900003      9.151164244199984      3.821317294799971
Si      9.375235479100001     12.391278194799993      6.159721014499975
O       8.212586064800005     13.096693435099994      5.306556862199979
O       9.950477755899991     11.196577268299993      5.238249692099997
Si      7.077482154399994     14.232986286999996      5.375826264099984
Si     10.412563893499996     10.615259010599987      3.798000774699989
O       6.235803085600010     14.005654396699988      6.709935788299993
O      11.440450429999993     11.705468775899991      3.244366097199989
O       8.792228791299999     11.775303584599984      7.529108114199992
O       5.746854203000011      8.237313329299987      4.654706861299981
O       5.412669750999998     12.683915518199974      2.252025767799975
O       5.495418770500012     10.140369589999983      2.849062279999984
O      10.029362521399991      9.635954306199983      8.360086839400003
Si      5.413434648800012     13.158082409099979      7.779395009999994
O       1.609262543300002      7.655109204399992      1.836703289499993
O       0.384950065500013     10.541578634999986      8.454755451899993
O       3.582288419099994     13.588744783499987      4.074937467799988
O      12.998988184200007     13.755347296299989      3.170719185799995
O      13.484275816799999      8.647774497799997      4.578084897799976
Si      2.164516654300011     12.327600776599976      1.281730896099989
Si     14.518615148599990      9.886457988999990      4.472832125699989
O       2.030736301999992     14.739789894799967      7.298566480299995
O       4.336877454400002     14.162100104499977      8.371833397999980
Si      3.739891821500009     10.752769885399978      6.554246854999979
Si      4.905736947200004     13.888692543999991      3.184946798399978
O       3.512907271599992      8.637354454499988      3.253510036399975
Si      4.863989119199988     11.228128418099985      1.850502215899978
O       1.537231354999988     13.272242309499980      2.445163698799981
O       4.744706453500004     11.858569816799985      7.122970302599977
O       3.755445107100004      9.387705158699996      7.377577446599999
Si     12.936229665599994     12.150305658199990      2.855279435599975
Si      0.752606472200001     14.108292188099991      6.558435997199985
O      13.183493862499995     11.871799440499988      1.299426164799993
O      13.979677614899995     11.139086528499995      3.595623854099990
O       2.239520290500004     11.296909783899995      6.643334425499986
Si      0.690470902799998     11.260608552499995      7.066893908999993
O       4.179504488799991     10.382915987999979      5.061697247699991
O       1.119930493899987     13.591528016199986      5.068775796499973
O       0.209448044600006     12.782168128599992      7.288423280999978
Si      4.506736078900007      8.144648639799984      8.034153451199989
Si      2.032034298000004     14.010924710099985      3.813389360099977
Si      4.747687875300001      9.319992179999987      4.001898422099987
O       3.269669577300004     11.362383033699979      1.941042841999982
Si      2.016206921200008      8.082155902399990      3.317885584599994
O       1.034112454699997      9.222687957799989      3.906700461399983
O      14.725732893399972     10.459014169399984      5.953028096099998
