216
14.9 14.9 14.9
 Si         3.1212023977        4.0521348364        2.7639020976
 Si         5.1771134740        2.0643440410        2.7523564615
  O         3.4170713607        4.5336517131        4.2763702029
  O         5.8768816603        1.4192516644        6.4565069956
  O         2.0530912109        2.8577613485        2.5593417266
  O         1.8012291768        1.1546572206        4.4120968268
  O         6.3174618703        1.4243503798        1.8122382430
 Si         2.2400096688        1.3007870150        2.8959462674
 Si         2.4506015253        0.9716654119        5.8463213548
  O         3.8753509226        1.0656436005        2.8093050373
  O         6.7089217338        6.5350838065        5.2082078806
 Si         3.1448998603        5.7067604088        5.3516791575
  O         4.5504497065        3.4775823874        2.2328761494
  O         1.8977002465        6.5284600837        4.7850012828
  O         2.3979962699        5.2247372959        1.9817562941
 Si         1.4097568405        5.5175268786        0.7447716412
  O         5.9601792941        2.3968223221        4.1390421191
  O         2.7214584679        2.3941396659        6.5417993384
 Si         6.7319248080        2.4779705157        5.5617300925
  O         4.2352188172        6.8740586370        5.4659526240
  O         3.0572758393        4.9664935533        6.7941223869
  O         1.1617625625        0.4205674500        2.0619621779
  O         1.4965033893        7.1113633813        0.7449410000
  O         1.4003086744        0.0826416323        6.6239342869
 Si         0.4446221965        7.1529724627        4.9758174247
  O         3.8007475273        0.1568770759        5.6934614566
  O         6.9572833702        4.0445676679        5.9582701478
  O         6.3568742462        5.4715349482        0.3399082171
  O        14.8091957323        4.9599979907        0.6684872437
  O         7.8591254969        3.5085128117        1.3302980720
 Si         7.7598870913        5.4139090151        5.5653346725
  O        14.3940283491        5.8675874787        5.0553175480
 Si         7.8016989355        1.9047252219        1.3382466651
  O         8.1814699798        1.8285404838        5.7071439826
  O         8.9399927965        1.3981421719        2.3960540645
  O         8.6076914413        5.2116792155        4.2147733844
 Si         9.4664449925        5.8544720578        3.0052810984
 Si        13.4084091556        4.8414720992        5.7914764383
  O        10.7618476877        4.9504158162        2.9768698932
 Si        10.3107170688        1.1239629159        3.2850477663
  O        12.8360188349        4.1307909007        1.9115976347
 Si        11.8934404517        3.8450481136        3.1721119073
  O        11.3282273804        2.3417452489        2.9910603649
  O        12.5804625194        4.0597967890        4.6327698916
  O         8.6861935147        5.8756134178        1.5787595201
  O        10.2708106648        0.9886281446        4.9005393764
 Si         9.3304456377        0.8202946032        6.1992606473
  O        14.1627384333        3.7208239486        6.6939079368
  O        12.5790740957        5.7968901146        6.7957998868
  O         8.6955948690        6.0483415316        6.7197906873
 Si        13.5006259852        4.0357433484        0.4674573208
 Si         7.8467369498        4.9214880218        0.5761129199
  O         9.9241562413        7.3911138757        3.2337050378
  O        13.7482918166        2.4534782218        0.1617387911
 Si         5.3428339587       14.8604117229        5.9971211701
 Si         5.5798862887        7.6137016410        5.0417405351
  O         6.8624763903       12.1598579615        0.3301124026
  O         5.8036287867        7.8654941502        1.0814720570
  O         3.3832864864       12.3350177444        6.7943026318
  O         5.5446603721        8.1993614653        3.5511781309
  O         1.6505962352       10.3474968312        6.2946581067
 Si         5.6607710873       11.7307165874        1.3063771163
  O         5.8727509754       10.2685512035        1.9036206602
 Si         1.2565402277       11.8062872388        3.2262229884
  O         5.8754108115       12.7490893346        2.5614027430
 Si         6.5696605440       12.7464596963        4.0165148933
  O         2.2270481792       12.0846709295        4.4662482571
 Si         2.7892187925       11.2888397388        5.7180659351
  O         2.1474122145       11.6683428746        1.9069259629
 Si         6.3227122851        8.7896703867        2.2761594742
  O         3.9841311419       10.3389259016        5.2247381924
  O         5.9650410422        8.8741371486        5.9643654613
 Si         5.5187853080       10.3876772587        5.7251665339
  O         6.2866908631       11.2741918067        4.6357335792
  O         5.9725144824       14.0828200900        4.7207633972
  O         0.5777334937        7.9601082888        6.3827170213
  O         0.3265879305       13.0930944528        3.1491599363
 Si         2.6792645811       11.2111515238        0.4677511858
  O         4.2390952181       11.6824517475        0.4968234855
  O         5.6409246097       11.1598578072        7.1241228735
  O         0.3363396379       10.5095121299        3.3933240003
  O         5.5553705028       13.8340799852        7.1985635533
  O         0.0861826906       13.4897260691        0.5756647889
 Si         1.2365934914        8.5625768139        0.1488838003
  O         2.4836133883        9.6084476503        0.2492043284
 Si         1.0263516957        9.2378912747        7.2561802861
  O         0.0842451085        9.1106094087        1.1554212079
 Si         0.0015653597       14.1709831449        2.0179689903
  O        14.8279980631        8.0261146047        3.7142782705
  O        10.8498224968       14.5680656797        2.8930238352
  O         7.9156925170        8.8625300769        2.5637987129
  O        10.5926909618       12.4880662866        5.3765060392
  O        12.3412253374       10.5854094238        4.7846333287
  O         8.5363947574       11.4301729301        6.5411275263
  O         9.9274249022        8.6907381718        0.9031742925
 Si        11.6426742298       11.3907358241        5.9599630477
 Si         9.5276251202        8.7562307258        2.4592731975
 Si        11.9358650963       13.6140813392        2.2079168352
  O        13.3235009854       14.4809308813        2.2313493990
  O        10.3592002430       10.0177795281        3.0680678079
  O         8.8565764437       14.1648283912        6.3737713938
 Si        14.5036047429        9.2525077103        2.7007657441
  O        10.8490330412       10.2649340986        6.7746038646
  O        11.3448256020       13.3249780233        0.7554383551
 Si         9.0172324280       12.7214373878        5.6298168871
 Si        11.8899659804       10.5706355279        3.2462522772
  O        12.9141440542        9.5292151718        2.5593937327
  O        12.0830450728       12.1135196175        2.8029572172
  O        12.7467097537       12.1694196601        6.7975451461
  O         8.1898970164       12.8302791628        4.2273335323
  O         8.7148387822        8.7497628147        7.2157150022
  O         4.0437047705        2.6387540104       11.2784017421
 Si         4.1513181929        2.6962309069       12.8704899393
  O         4.1482003038        4.2979982286       13.0794774418
  O         2.8778137087        1.9032819369       13.4942213636
 Si         4.5352047494        2.2175825104        9.8224073233
  O         5.4762409458        1.9807161234       13.4908868831
 Si         6.8068054894        1.0322977751       13.5060682948
  O         6.1489501617        2.3090340435        9.9366291652
 Si         1.6930973458        0.9659567892       12.9031389895
  O         3.9169593077        3.2232609930        8.7027506889
  O         3.9640320428        0.7020059924        9.5991254138
  O         2.3948199398        6.3854377073       12.3222979372
 Si         3.2129092741        5.5477485502       13.4516626144
  O         1.3322729146        3.7274444990        8.3514996353
  O         4.1245393581        6.5453839800       14.3311576383
  O         1.9876298700        0.7496868286       11.3462365142
  O         2.0620521466        4.8800433188       14.3328112914
 Si         0.5563333659        0.1045773610        7.9660167806
 Si         2.7731188527        3.5954681465        7.6121572959
  O         0.2443662830        1.6454412320       13.0746670642
 Si         5.6369237029        6.8375530592       14.7807785084
  O         7.3683130163        1.0130184944       11.9750447850
  O        14.9168202129        7.2055707666       11.1933534165
 Si         7.4872824892        2.2058146861       10.8596759101
  O        14.8127867356        1.5635241816        8.1888784511
 Si        14.7298456849        3.1692910080        8.1102558785
  O         7.7828830071        3.4723632930       11.8358387354
 Si        12.0236073558        6.3467584761        8.2072084876
  O        12.5851913696        4.5449529951       14.0845314340
  O        13.7310495969        3.6459684097        9.2708328851
 Si         8.8997613966        4.4160093927       12.5224062717
  O         9.0206378244        5.6363177689       11.4987615937
 Si        12.2297618113        3.8920212736        9.8081676649
  O        12.5774052396        2.3148380604       12.7486339929
  O        12.4073107860        4.3944176242       11.3372834514
 Si        10.0919814268        1.5759877822        9.2290202250
  O         8.6690623423        2.0779853959        9.7827554799
  O        11.2666489572        2.6368950991        9.5272397191
 Si        11.9596498031        3.8005476804       12.7656176846
 Si        13.6530701845        1.5889873195       13.6901919229
  O        10.3466733065        3.7246564316       12.7474334413
  O        11.4894915648        5.0722789203        9.0190361695
  O         8.4533211829        4.8834782511       13.9903712627
 Si         8.7698597345        7.0146974087       10.7236325168
  O         8.4611569751        6.8739138466        9.1503016241
  O        10.4285222599        0.3160905658       10.1713180554
  O        10.7581785281        7.2849658300        7.8701114794
  O        13.1462324598        7.0353502205        9.1789686917
 Si         9.1427678455        7.2462102330        7.7213718356
  O        13.0828189501        0.0813496118       13.8109324679
  O         7.8732524442        1.4995204003       14.6563770613
  O         9.9440721755        1.3127219998        7.6232816433
 Si         2.7054502461       14.7653594775       10.2246658287
  O         1.5750182078       14.5590457508        9.1149805954
 Si         1.3475823035        7.6122463514       12.0623706233
  O         6.3001592793        7.5258114014       13.5015558555
  O         1.6493966981       14.4054862313       13.5811261805
  O         6.5625169910       14.3867303872       13.9107491304
  O         0.9019492905        8.2909434083       13.4793138393
  O         2.1488510475        8.6850391809       11.1716934689
 Si         0.7270050264       13.1652205282       14.0448401249
  O         2.0684178500        9.0238953032        8.5244169746
  O         4.7223800693       12.5127719561        9.0894965379
  O         3.1460321689       13.3355842010       10.8576331975
 Si         2.1881169626        9.7671452734        9.9961536218
  O         3.4701930199       10.6746031042       10.3423135779
  O         5.4609008357       12.0825813854       11.4212893469
 Si         4.1522827777       12.1227619180       10.4996480099
  O         6.3619883741        9.9242171054       12.3395869778
 Si         6.8470936031       11.3374034202       11.7522409912
  O         0.9201843526       10.7687781397       10.0162915105
  O         1.7458155218       11.9167964095       14.2315536127
 Si         7.1854992341        8.6212362120       12.7726860161
 Si         4.8149744623       12.4652109799        7.5395790251
  O         7.6213877779       12.2599451373       12.7795885459
  O        14.5735828228        9.8571328836        7.8639138511
 Si         7.5297100751       13.1022681265       14.1186915300
  O        14.3343349027       12.9064784923       13.0647721736
  O        11.5888153738       12.7484530004       13.3153709000
 Si        12.8747081220       13.6420267606       12.8902960793
 Si        14.3902353088       10.4883534012        9.3331612687
 Si         9.6380639225       11.1638721574       10.3679800897
 Si        10.5024786266       12.6132462379       14.5113428731
  O        13.6661115036        9.3744825817       10.1908906584
 Si        11.0448423083        8.7754002383       11.8050274624
  O        12.4227598540        7.9472258240       11.6753782853
  O        12.4972420200       13.9869371748       11.3421664202
 Si         9.7995014101        9.4839718010       14.4180649156
  O        10.0988710624        7.8584954996       10.9101749637
  O         8.3590057396        9.1879831945       13.7397493554
  O        10.0980211664       11.0523180013       14.7078158379
  O         8.0380136223       11.0899490258       10.6849903043
  O        10.6722344483       10.2659762038       11.2581483872
 Si        13.1425316618       12.9181903981        8.1483127976
  O        11.9173447511       13.7331586192        8.7752637356
  O        10.8561203192        8.8514680325       13.3980514262
  O        10.2536275101       12.6517888500       10.5115234409
 Si        11.2831969309       13.8644212067       10.2560134850
  O        14.3222205790       13.9101236403        7.7894252204
 Si        13.5549974972        7.8143138718       10.5482299553
  O        13.5677560047       11.8435713086        9.2710914825
  O         9.0963843069       13.4225415745       14.4100109900
  O         7.6168425019        7.8693498645       11.4235276414
  O         9.6035912597       10.6074782713        8.8734208381
 Si         9.3485933623       10.2440233777        7.3453864811
