216
14.884 14.884 14.884
 Si         1.6863419746        4.1159174795        4.6558163268
  O         0.9845754822        3.0648894456        3.6384968875
  O         2.4796349940        3.3161591029        5.7869927197
  O         6.3669472042        4.9549284070        4.2279002849
 Si         6.3866015757        4.4237417859        5.7604122860
 Si         0.8825843954        1.5538695891        3.0538236114
  O         2.5623982606        5.2769104109        3.8846610292
  O         2.3960977920        0.9917816970        3.2267296724
  O         4.9603064351        3.8058422088        6.2059836367
 Si         3.8303442133        2.6385083758        6.3174909023
  O         3.9816897661        1.3183289730        5.3807111557
 Si         2.2141283073        6.8780959271        3.9987258825
  O         6.7802210765        4.2264955774        1.8373223532
  O         0.5632855228        4.9571180752        5.4485484727
  O         0.5074659116        1.5783118183        1.4803143400
  O         0.5841366698        6.9433635317        3.8040147420
 Si         3.6071135606        0.3769823413        4.1135201050
  O         7.0237343431        5.7012012636        6.5338094361
 Si         6.0707412763        3.7964509443        0.4922622714
  O         5.4516112332        2.3083699572        0.6595100204
  O         7.3541427384        3.1297607217        5.8616277226
 Si         7.2789048502        7.2806702870        6.8169500259
  O         4.8615222687        4.8072679369        0.1689730699
  O         5.0194182172        0.2528926720        3.3151893436
  O         3.9801152122        7.3356556003        0.7340965455
  O         2.6390202699        7.3632370473        5.4791385651
 Si        14.9129965426        1.6495141819       -0.0593906107
  O         7.5173877769        1.1543494177        3.9756331653
 Si         7.5275308273        4.7831615245        3.1147385056
  O        14.5853086142        0.6655128680        3.8051734846
 Si        14.4857323176        6.0574611290        4.7637098064
  O         8.2688400895        6.1907461639        2.8074633443
  O         8.5342432307        3.6140991983        3.6458906463
 Si        12.4796680503        4.7908794350        2.7718280182
 Si         8.2608801538        2.4147247665        4.7254682452
  O        11.4970696314        6.0224358139        2.4669880980
 Si        11.5537810741        2.1558264946        1.8982490708
  O        11.6564566701        3.3901457007        2.9659072561
  O         9.5919322606        1.9734947785        5.5398019911
  O        13.4781413116        4.6361342050        1.5036226763
  O        10.1700221108        1.4227159300        1.5027388258
  O        12.5683870961        0.9980550902        2.3110782757
  O        13.3229454734        5.2176647152        4.0525824839
  O        11.9904826032        2.7967165619        0.4967843837
 Si        10.2916813217        1.2128605984        6.7983738621
  O        13.8819227501        7.0401153725        5.8739072886
 Si        13.0790575707        3.9111735508        0.1212646712
  O        11.7054349765        1.8855533746        7.1835529966
 Si        13.1735698783       -0.0597099268        3.3365034847
 Si        14.4054229067        7.2556257036        7.3794070590
 Si         6.6253907199       14.8400327685        3.2894165259
  O         2.9724987022        7.8592554402        2.9790481700
  O         7.0256454329       14.5635671554        1.7459481440
  O         1.8993873520        9.0247118839        0.9078590997
 Si         2.4764389110        8.0622374234        6.9198915453
 Si         6.3507287407       13.6198265096        0.6106657779
  O         2.9866067356       13.8166829307        4.5393531677
 Si         3.3045710911        8.5390614114        1.5475873725
  O         2.4998178489       11.3212188452        5.0361874800
 Si         2.4730468083       12.4231612062        3.8856570634
 Si         4.2207311852       11.4729411146        1.4325485400
  O         3.4720835958       11.9938473094        2.7323845116
  O         0.9974744525       12.4080209356        3.2234661157
  O         5.5361785751       12.4035205462        1.3169904315
  O         4.2995503693        9.8398994601        1.5741537712
 Si         2.5025498831       11.1006380410        6.6137698844
  O         2.9855983197        9.5920479474        6.8748387958
  O         6.8615056127       13.4008221120        3.9706993368
  O         3.4114585395       11.8097711444        0.0972107076
  O         0.9262971983        8.0305643962        7.3653370913
  O         0.9955606055       11.2384302227        7.1040771959
  O         7.6882115606        8.2826255402        5.6068953936
  O         7.3473014630       12.9050903677        6.3603838377
  O         5.8788228135        7.8522798984        7.3546680364
  O         7.7801145671        8.7694325044        3.0666623803
 Si        14.3119566131       12.0590277316        3.2059503982
  O        13.5603421216       13.3948517203        2.7067054827
  O        11.4970714629       12.3141488485        5.7044862774
  O        11.9018865502       14.4699179582        4.3042856829
  O        10.4183770128       14.5582402650        6.3771846611
 Si         7.8501888676       12.5296837281        4.8810947880
  O        12.7303249583        8.4266929683        2.1499357884
 Si        13.1810800187        9.7278988065        1.3039128284
  O        11.8289640643       10.3286587196        0.6601966503
  O         7.6110863039       10.9260448550        4.6362624433
  O        10.5780241781        8.2661794889        6.7883626759
 Si         8.1716614822        9.4051599248        4.5199542565
  O         9.3643642323       13.0675031501        4.5464685289
  O         9.7663501722        9.5948535206        4.7138320366
  O        13.3878175532       11.6812535971        7.3336329337
  O        13.8968363647       10.8358716307        2.2386413787
 Si        12.7917898595       11.4051313049        5.8646307873
 Si         8.5570940740        7.6590544870        2.1737841334
  O         8.2695164343        7.6846123877        0.5838018816
  O        12.2577767683        9.9074612110        5.7002096323
  O        11.5732928559        7.7713626174        4.3884489825
  O        14.2456921066        9.2671869730        0.1716116442
 Si        11.0514554517        8.8994210886        5.4054652196
  O        13.8836071133       11.7366074970        4.7271193628
 Si        10.7865475205       13.6166024074        5.1453705361
  O        10.1031716850        8.1064855751        2.2335033597
 Si        11.5088457931        7.5946931368        2.7941424018
 Si         5.4563625580        5.1832163251       10.5477071907
  O         5.9521269352        3.6514843986       10.3370555205
  O         3.9604140265        5.2186150684       11.1670120035
  O         5.3757987690        6.0357884737        9.1782315337
  O         3.2257175526        6.1214293724       13.4751761697
 Si         2.6899693400        5.8000298228       11.9904594642
  O         1.5742220679        4.6258839295       12.0682044563
  O         6.5201554245        5.9489694228       11.5060373105
 Si         3.1248406354        1.0619636939        8.9008087591
 Si         4.1730492870        1.2288023571       11.7403447520
 Si         6.7615728219        2.3363012211       10.8673959487
  O         5.6903620101        1.1414296978       11.1630122493
  O         3.3141531340        1.6529368390       10.4165563985
  O         1.5800416651        0.8334229945        8.5160582421
  O         4.5489400992        2.0024635009       13.1473067243
  O         5.7957298994        6.8570013052       13.8781951861
  O         1.1576170670        1.2457713464       13.7389247701
 Si         4.4464795407        6.2734022857       14.5149620294
 Si         0.2303388768        4.0767623599       11.3753761871
  O         0.3945021334        4.1407662888        9.7655960406
 Si         6.6459259034        7.1662918498       12.5631752893
  O         3.2214602552        0.0748820376       12.3982531357
  O         3.7258911546        2.1411400199        7.8525783285
 Si         4.7709522794        1.2182272848       14.5816900097
  O         3.3054015950        0.6664336514       14.9768501892
  O         7.2681368222        3.8133144514       14.3068472523
  O         2.0618330635        7.1729558359       11.3387355524
 Si         2.3419197936        0.1610576492       13.7746712395
 Si         0.2149541159        0.0332643676        8.7594336034
  O         7.6989348953        2.8042127808       12.0740965391
  O        14.7153295339        0.2463779171       10.3197524623
  O        14.6383348486        5.7894714242        7.9529755626
  O        14.6422015110        2.5598842255       11.6537560386
  O        13.7343550814        0.5737027332       14.6390111855
  O         7.7697264654        1.6648506185        9.8401376110
  O        13.9665412487        0.6670396198        7.7885027560
  O        13.9051120548        5.0468804234       11.8392701455
 Si        14.0940243459        4.5293340045        8.7348773261
 Si         8.4196246657        3.0656224778       13.4740992367
  O        12.8148695707        1.9038875252        9.7509414297
 Si        13.7671962812        1.3814749301       10.9715110136
 Si        10.8373163398        5.1639020436       13.3132183460
  O         9.7529506679        3.9735529648       13.3914115045
 Si        12.6498914668        5.6159350183       11.0065131134
  O        12.7348754224        4.8815391645        9.5678617953
  O        11.2455104750        5.3771874287       11.7564563480
  O        12.8994022132        0.7371670470       12.1335869874
  O        10.2496930628        6.4671245780       14.0582620241
 Si        13.0035198050        1.9273708757        8.1188754572
  O         9.5090215195        1.1596351065        8.1862279240
  O        12.2490742960        4.8778526136       14.0462577062
 Si         8.5631901290        0.4203725642        9.2420897044
  O        13.7379683082        3.3127709077        7.7625360005
  O        11.2210084973        0.5726524725       13.9944185186
  O        12.8945734518        7.1847087457       10.7592220269
  O         8.8392240197        1.6579745915       14.1385987497
 Si         9.9177835105        0.7560499807       14.9185216863
 Si        12.6697768542        0.0543559391       13.5653669449
  O        14.3889719150        3.1480081952       14.4635868469
 Si         4.8980955480        7.4542983501        8.5644768923
  O         3.3919773594        7.2961819942        8.0141744124
  O         5.6094883334       12.6418050633        8.5114986078
  O         1.7256854626       13.5949905891       14.0616883391
 Si         2.2579998015       12.0876535668       13.9283023595
  O         3.3103106504       12.1483034425        9.9149656456
  O         1.3256760344        8.6755389835       13.3062589879
 Si         1.5049459801        8.6652705631       11.7019227489
  O         5.0389450390        8.6806687808        9.6021633195
  O         6.0309628531        8.5187762382       11.9839179137
  O         2.5630281013        9.7573914125       11.1469065878
 Si         3.4086773801       11.1384243483       11.1765258503
  O         4.9680485140       10.7452443707       11.2444376410
 Si         5.8436679068        9.4962158567       10.7391157572
  O         2.8953357158       11.9109014515       12.4748573496
 Si         4.0239506694       12.8860829520        8.6541520491
  O         3.8072141092       14.4798986266        8.7701534516
  O         1.0594215321       11.0666549727       14.2327181970
 Si         7.0834357647       12.9267239382        7.9338367714
  O         0.0689309820        9.1007633730       11.0946446590
 Si         0.9009555873        9.4995852155       14.6170251841
  O         7.2823491284       10.0026665379       10.2526739489
  O         5.6192551486       14.7188203760       14.5423234054
  O         0.3282499615       13.3659764841        8.4249791601
  O         3.3865322843       12.2303364583        7.3337459109
  O         8.4508364974        7.3623034436        7.9470102960
  O         8.1876755337        7.4422765627       12.8983359864
  O        11.5695263731       10.9935073392       13.0588036490
  O         7.3619857215       12.8139684553       14.5434258084
 Si        10.7637835016       10.4625638039       14.3422631253
 Si        12.3773748884       12.1995300895       12.3691475131
  O         9.3385353179       11.6558190426       10.5898748734
  O         9.3514642180       14.3797240821       10.3290480259
 Si         8.9253167954       12.9150490335       14.2323955364
  O         9.4254384351       14.1391997153       15.1397594438
  O         9.6682638877       11.5756580164       14.7189020381
  O        10.0079012994        9.0814084644       13.9861685756
 Si        12.3936674461        8.1455640419        9.5783664587
  O        11.4130490578       12.9818923270       11.3203504614
 Si         9.7965414152        8.2316979293        8.1873808485
  O         7.5139034237       14.3582522045        8.4982766383
  O        13.6448154601       11.4911429595       11.6618866849
  O        10.8796363244        7.6861890009        9.2556896128
  O         8.0172010664       11.7444983475        8.4309279417
  O         9.4230406668        9.6804583003        8.7674998184
 Si         8.5189618556       10.7460979718        9.5514239298
  O         9.1765326323       13.2247621045       12.6700057604
 Si         9.8009355142       13.0807714516       11.1900756210
 Si         9.1959542300        7.6911843684       14.1261012055
  O        12.5799296558        9.6669587636       10.0968394736
  O        13.3164907443        8.0239763910        8.2610845237
  O        14.7991549574       11.0030768101        9.4271377126
 Si        14.7990715768       11.8517927331        8.0838690698
  O        12.8096815239       13.3204857301       13.4610917815
 Si        13.9837206199       10.3080192193       10.6078268453
