216
14.995 14.995 14.995
 Si         3.0128996472        5.8171738550        3.4384940592
 Si         6.0879134923        5.2881697539        2.6238456511
  O         4.4820771096        5.5350748731        2.7995551850
  O         1.9449530893        5.8643245657        2.2622163606
  O         2.6449530789        4.6158418639        4.4665092983
 Si         2.0930330717        3.6372089133        5.6422065859
 Si         1.0766267838        5.8673955437        0.9353591118
  O         6.2640138908        3.6652792860        6.1683442464
  O         1.0280647993        2.5091412696        5.1592132883
  O         6.7014931144        6.7865761272        2.8115218631
  O         3.3541051299        2.8987075608        6.3262010652
  O         6.7176629071        4.6134671414        1.2678110435
  O         6.4865623707        4.1460538605        3.6851958754
 Si         0.7427838162        0.6869695083        0.7216200816
  O         1.3225627699        4.5297715712        6.7299157221
  O         2.1144998505        0.6271343085        1.6412784148
  O         2.7999111032        7.3403358332        4.0500511514
 Si         7.2488617266        3.4548581567        4.9086310280
  O         4.6889379623        0.7718756992        7.0313752537
  O         1.3820181200        4.4355752011        0.3186116176
  O         7.4890396674        0.1572413504        2.7353082409
  O         0.7013836614        2.0285646249       -0.1594886790
  O         4.9272769082        0.2451556150        1.9448102796
  O         0.7061836242       -0.0753964982        4.6834827201
 Si        14.9373244073        1.3301566677        4.9753593491
  O         7.6496460816        1.8980240084        4.6865891099
  O        14.5299595081        6.0908551626        1.3277547088
 Si         7.9948253037        4.0028567532        0.4570842221
  O        12.1813617512        5.0740855653        0.9080294358
  O        14.2840916952        0.6387577626        1.4873272010
  O        10.9821867160        5.0112393115        5.0144906011
  O        11.9482236647        2.2638847122        2.0958614760
  O        13.9840695035        1.7968024516        3.7526972551
  O         9.1184463841        3.1125742056        1.3332662981
 Si         8.1562275090        0.4374651423        4.1979035075
  O        12.9695337206        5.6231981603        3.4301889442
  O         8.5863329031        4.3024438533        5.1593788640
 Si        13.0113403153        6.1149060308        1.8569210689
 Si        12.3661439542        5.8264359961        4.9394884297
  O        13.9851424751        1.0199445612        6.2488673644
 Si        10.5592625212        2.2747752057        1.1648334017
 Si        13.1120718323        1.1746396251        2.5426735998
 Si         9.6249102680        5.2964507771        5.8414870545
  O         9.2904299310        6.8731953649        5.6942657305
  O        13.0421749662        5.4702185642        6.4202455549
  O        10.2325044778        0.6964733279        1.1654255740
  O         9.7755634139        0.3919437602        4.1450240205
 Si        12.7193352677        0.1823159953        6.8129881608
  O        12.1742626933        7.4188188933        4.9906168298
  O        12.2610360519       -0.0751802955        3.1127136125
  O         9.6936036900        4.9841446224        7.4329721045
  O        11.0968919152        2.8944269983       -0.2237143441
 Si         3.3850117380       14.7917337185        2.2509177780
  O         3.1856840853       14.8357039755        3.8414443351
 Si         3.2763788175       12.0615195824        0.7414147154
  O         2.7282307580       14.2864329008        6.3105588961
 Si         4.3651498479        9.3282752972        0.8368721178
  O         2.4230873288       10.9303589219        6.5691567576
 Si         6.1920378663       14.2683070108        2.3153073737
 Si         2.1176336791       14.1515311495        4.8355779078
 Si         1.7909592119       11.0865309691        5.0996889508
  O         3.4361902620       13.2565933464        1.7917905647
 Si         6.7336342584        8.3882109971        2.5219198013
  O         3.6042653298        8.8939718728        2.1724759098
  O         2.6481014004        9.9948535290        4.2970600944
 Si         2.4884988862        8.7624283093        3.2948442736
  O         1.0718404913        9.0611761123        2.5033329839
  O         6.2347266474        9.2811863792        3.8166536220
  O         5.8587634963        8.7481394020        1.1705249035
  O         1.9612196622       12.5807242363        4.5285374190
  O         5.7771458254       13.3604738034        3.5820926625
  O         5.3006068964       13.3594078029        6.1081071353
 Si         0.8273663400       10.2094542970        1.3536094809
 Si         6.4476678125       13.1065721992        5.0150564332
  O         6.3191306556        9.5267113830        6.5644290921
  O         6.5721920979       13.1967104888        1.1714052662
 Si         6.9367304231        9.9559482080        5.1198629683
  O         2.0373607810       11.2454730820        1.3321060247
 Si         4.2225475774       14.2375510748        6.9179601074
  O         4.4532179411       10.9435887847        0.6299126482
  O         6.9500776878       11.5719730021        5.0748523372
  O         0.2135021005       10.7956983727        4.9272072796
 Si        13.6521139820       10.9358332877        5.3042359827
  O        12.6602247854       11.2260474351        4.0698938168
 Si         9.2425539537        8.4210624168        6.1543043355
 Si        12.1577937690        8.4647274145        6.2040693781
  O        12.5055805717        7.7227957361        7.5840441062
 Si        11.8740498681        8.6746564342        0.4958229548
 Si        11.1284118510       14.4808498064        4.1812339655
  O        13.2839002974        9.5268357996        5.9418871979
  O        12.4192784944        7.6325322971        1.6352071843
  O        10.6999563193       12.9661508364        3.8282199741
  O         7.6442295085       14.2103050737        5.1577345069
  O        10.3087030815       10.5519993769        2.8822395071
  O        10.3178378260        9.0642086034        0.7765474484
  O        11.8607394418       14.5242790307        5.6179799525
  O        13.4348755305       12.0205415086        6.4641906588
  O        14.5380312114       11.1659515672        1.4951923768
  O        10.6955778719        9.0737049265        6.3168705517
  O        12.6469439596       10.0742817617        0.3120170657
  O         8.4411013452        9.3683758502        5.1350615459
  O         8.2965120598        8.7428829172        2.3410476737
  O        12.0922866034       12.1724105279        1.7402448850
  O         8.2792758415       10.9455847048        1.1645321935
 Si         7.8047334095       12.3577861382        0.5374981008
 Si        13.1745292524       11.5431579243        0.7235757912
  O         9.1290848752       13.2663321472        0.7775095353
 Si        11.4255426268       11.7042561745        3.1400083311
 Si         9.3169110995        9.8534098863        1.7839355907
 Si         9.8671828949       14.5267831072        0.1283984107
  O         5.1602071755        2.1843645877       12.8888402170
 Si         3.5944885172        1.8311301621       12.8352635460
 Si         6.7078812324        2.6298797283       12.7800838878
  O         2.8932681122        2.9635606211       13.7410263802
 Si         2.1575270657        1.3592204293       10.0200493319
 Si         5.7850715302        6.4985681041        9.3278691245
  O         2.9663980490        1.8735607239       11.3332737252
  O         2.8258114838        1.8776807315        8.6607981973
  O         0.6126955780        1.8151353528        9.9324597607
 Si         1.4006871691        3.3255958081       14.1898256662
  O         2.2713894413        6.0865102859        8.5924549221
  O         4.2836830181        6.8790383705        9.7653600132
  O         6.0188847727        5.2965163148        8.2688700410
  O         6.6479888971        6.0997017766       10.6290104180
 Si         0.9827794478        5.3057163606        8.0843799140
  O         3.2755900908        0.3791526490       13.5149301545
  O         0.3856086384        4.2934416532        9.2068692301
  O         6.8625329350        3.6776622170       11.5577417319
  O         0.6470774422        3.8971461375       12.8860989085
  O         5.1584816506        2.8955713579        8.3562287427
 Si         6.3446461162        3.7966481979        7.7699559684
  O         7.3472250962        3.1895773446       14.1819925748
 Si         2.8876906341        7.4514988559        9.1738372104
 Si         3.9874213084        2.1118086786        7.5840966038
  O         7.5022996712        1.3335946238       12.2565835769
  O         1.5609901046        6.9462385303       14.8480640182
 Si         7.7043823751        4.9785913645       11.1112150470
  O        14.9110924947        6.4808992988        7.8065926415
  O         7.8262397811        3.2803934138        8.1966698353
 Si        13.3112440716        6.3560142417        7.8088192829
 Si        14.5442505799        3.0119055155        9.7566964987
  O        13.8304525011        3.2051309882       11.1888976192
  O         8.5105749423        5.3799633512       12.4083517919
  O         8.8332415370        4.7578355557        9.9748523616
 Si        11.8028641455        2.0342662715        8.9196932409
 Si         9.2397897418        3.9750595620        8.6256755604
  O        13.8222539409        5.6263975190       11.9448243697
 Si         9.5136759077        5.7882246827       13.5560977237
 Si        14.1216072923        4.1450802662       12.4463655237
  O        13.2527853884        3.8405616071       13.7578083040
  O        11.8753766854        1.0952310527       10.2336427457
  O        13.2622103544        2.7463430479        8.8112247710
  O        10.4761109385        2.9721857399        8.9169145930
  O        12.9613237823        6.0120645594        9.3850241861
 Si        13.2436043251        6.6716512059       10.8692957235
  O        11.0035012244        5.1463071960       13.5068759319
 Si        11.9066744407        4.2699764823       14.5159590004
 Si         8.5725142991        0.2041358515       12.5509960799
  O         9.9999347588        0.4695465486       11.8715084892
  O         9.7656895298        7.3434417818       13.2738812258
  O        11.7033551631        1.1672572162        7.5742698960
  O         8.8158095054        0.2249877735       14.1330250091
  O         8.8258882515        5.3048190744       14.9272768628
  O        11.8677355349        7.2638994233       11.4854224453
  O         2.1870319312       14.7639611649       10.0018152372
  O         1.0128966172       14.4537992286       14.6855816637
  O         3.4348243571        8.7516739500       14.5967799299
  O         6.2513072696        7.8202939243        8.5844092456
  O         1.9542927612        8.1173223909       10.2986912988
  O         4.0509898247       13.5874058764        8.3554715406
 Si         2.6316882177       10.1961128030        7.9886799785
  O         3.0382087870        8.6164306361        8.0360302603
  O         3.0530290550       12.8024224621       14.3160286557
 Si         1.8594811910        8.3996830676       14.2415420681
  O         1.4021735489        8.4341436531       12.7014140286
  O         3.8371795934       10.9602112734        8.7508896127
  O         1.7134397909       13.6614549867       12.3112370364
 Si         2.2815622856       14.0972434356       13.7319276034
  O         1.1736959402       10.3790128918        8.6548779879
 Si         4.4104533897       12.3662424455        9.3128658305
 Si         2.1501772980       13.3860989862       10.8012830915
  O         3.6021001784       12.6586745612       10.6952642565
  O         6.0182779949       12.4129801929        9.3838658023
  O         1.0076456914       12.4985188194       10.1461043430
 Si         0.7411274786        8.6172868997       11.2360564364
 Si         7.0377987934        9.0250405775        7.9398892285
 Si         7.3647804760       11.5901668841        9.7160871830
  O         7.3490797917       11.4030064521       11.3296254245
 Si         0.2616288819       11.1595724577        9.7207148078
  O         0.2390121144       10.1530315129       10.9969256820
  O         7.1850786286       10.1560299286        9.0521958240
  O         7.2818115889       12.1091365626       14.0104501778
  O         0.8510860618        9.4554811653       14.9295773687
  O        11.3863133274       12.1229031405        8.2011433679
  O         8.5150192387        8.5093836265        7.5769695559
  O         7.9762106194       13.7734693544       12.0935836430
  O        12.1070723784        7.9540244392       14.0614468909
  O        13.3578518839       12.6500790005       14.5260442015
  O         8.7462284850       12.2725115383        9.1453520554
 Si        10.3581493092       12.3405397993        9.4393001055
 Si        11.3082041031       14.8874992188       11.1287317327
 Si        12.2551543798       13.2133766687       13.4450134487
 Si        10.7100212762       11.0103925591       12.0747808340
  O         9.4588563924       11.7106349484       12.8047097980
  O        12.4122689575       14.2851147261       12.1924302349
  O        10.6262461572       11.1531618873       10.4828964621
  O        10.7727379227       13.7272953967       10.1461213439
 Si         7.9617550868       12.2306043896       12.5617070039
 Si        11.1608855070        7.9745351666       12.7540090290
 Si        12.9710249447       12.4396001136        7.9435531286
  O        13.8382428496       11.6351317248        9.0648102036
  O        11.1610191891       13.9683066720       14.3596820775
  O        13.1949364859       14.0508388627        7.8905240900
  O        10.7846127202        9.4617558332       12.3486740329
  O        11.9399292799       11.8070356942       12.7157658663
  O        14.3958244287        7.7987951095       10.8510908728
