216
14.807 14.807 14.807
 Si         1.8759717666        4.5343336540        4.5841928088
  O         3.3916682405        4.2872809940        4.1209553503
 Si         4.9877517229        4.2920777528        4.2372006197
  O         1.3083115210        5.7612306365        3.6981054399
  O         5.7624682632        5.6740930327        4.1158793870
  O         1.6482427938        4.7631805196        6.1609187257
  O         5.4918353514        3.4390034745        2.8939187662
  O         1.0635176694        3.2008082433        4.2694831864
  O         0.5792945399        6.4101986153        1.1506429782
 Si         1.5720859853        6.6867470144        2.3954663156
  O         1.7594940688        1.8741326234        1.8082371154
  O         5.2527408289        4.0239419652        5.8467894469
 Si         6.7199159816        3.1796983419        1.8330615904
  O         3.1024378433        6.3988059513        1.9701292255
 Si         2.5545083099        0.4969187030        1.9193497043
 Si         5.9947902077        7.0978610542        3.4609446641
  O         6.8231930310        1.7287043513        1.0821621639
  O         5.6951561107        6.9152135005        1.8841249605
  O         0.5632616596        3.8951552295        0.8275543631
 Si         4.2860849040        7.0812506330        1.1189015106
 Si         0.3185364553        2.4105677801        1.3610822137
  O         3.1161660667        0.3472316962        3.4391327184
  O         7.0724904724        4.2754113816        0.6695216627
  O         3.5505003236        0.4792109595        0.6334189850
  O         4.1184374703        0.0816293068        5.9232288683
 Si         5.0661055239        4.5751723066        7.3824095505
  O         7.9785219786        3.2094475637        2.7910823511
  O        14.1418815662        2.2977796719        2.6371812237
  O        14.0668385107        1.7106353009        5.3400416613
 Si        14.3350070438        2.7612887772        4.1721426447
  O         7.8303446143        1.5464312763        4.9589982152
 Si         8.5429973665        2.8041183669        4.2036577475
 Si        11.1477884682        4.2996642387        1.2680496290
  O         8.4010657904        4.1286543382        5.0958171703
 Si         9.5528438257        5.0817707662        5.7161219292
  O         9.2891676075        6.6602343169        5.4356348521
  O        11.8436246576        5.0219221241        2.5446454414
 Si        12.2054201342        5.0353171270        4.1234639063
  O        10.0415593071        2.3826694523        3.7900654619
  O        10.9313579301        4.6892287235        5.0182973894
  O        13.3268330330        3.9580825593        4.4420773015
 Si        10.5272001209        1.5822943306        2.4643985595
  O        11.1764410112        2.6861747545        1.4788000217
  O        12.7455427241        6.4234883243        4.6885674735
 Si        13.4334239409        0.7603800025        6.4672300053
  O         9.2863918590        0.8202770962        1.7152307194
  O         9.6270473451        4.8577265448        1.1500598688
 Si         8.8853800278        0.6693599723        5.8587731305
 Si         8.1460266845        0.9115800068        0.5544559791
  O        11.5869478749        0.5069469020        3.0655311702
  O         9.7781039225        1.8220700879        6.5742398758
  O         9.6240321529        4.5084982098        7.2407080628
  O        14.4822040836        1.5719049387        0.1766325885
 Si         8.4417253438        4.9046997660        0.0357577431
  O        12.2642788397       -0.0736282093        5.6788769086
  O         4.9189770269        8.0809472853        4.1155953810
  O         1.3263945997        8.2299119972        2.7946423693
 Si         4.4345985344       10.0617096594        0.5665524413
  O         1.5640961797       14.0698612664        1.6408546671
  O         3.9507005799        8.6472428812        1.1517712516
  O         1.9744947088       13.6481770662        5.4273151711
  O         2.5032441654        8.6359593792        5.0982026504
 Si         4.0624409230        9.0596208738        5.0497738662
 Si         3.3613213001       14.1507323822        4.7003412767
  O         4.1750250271       10.5147205763        4.3577903231
 Si         1.1359233802        8.8389237118        4.2744253685
 Si         3.9760335777       11.5887837799        3.1773521611
  O         4.2710970224       12.9905888933        3.9635563582
  O         4.7640175247       11.0980089975        1.8102489172
 Si         1.3104288525       12.5034782883        1.8133974818
  O         4.5986946370        8.9747549226        6.5655745615
 Si         0.6713010789       13.2620100935        6.3448924103
  O         2.4731295876       11.7603361058        2.6343463102
  O         0.7315261566       10.3890697800        4.2677397595
  O         0.0084408093       12.4215985961        2.7162418446
  O         6.9930717952        9.8874942816        6.7561489894
  O         1.1283308060       11.7888027211        0.3894354949
  O        11.5051122790        8.5465404669        1.0417596498
  O        10.8486297203       10.5281270427        2.6227570958
  O         7.4845326963        7.5743103149        3.7711996908
 Si        11.3038336389       14.4130683389        4.4059071636
  O        14.4741426595       12.5006439071        5.3462091494
  O        12.0988610549       12.6666801562        1.5620205039
  O        11.2718169265       12.8790789083        3.9650286719
 Si        14.4856077593       11.5783049765        4.0399247543
 Si         8.9193369371        7.8908920979        4.4124352925
 Si        11.7971919439       11.8058087840        2.9074171459
  O        12.5890822066        8.7294611177        6.1035892358
 Si        13.1236569554        7.9675516498        4.7790055790
  O        14.6411476794       14.5492999542        6.9089911321
  O         8.9014901961        9.3104924221        5.1747781164
 Si        11.1903877495        8.9357813902        2.5741101143
  O        12.5073779341        8.6254799239        3.4507890919
 Si         8.5583325099       10.1292101499        6.5160575903
  O         9.9762358365        8.0589861199        3.2027585014
  O         8.3155154935       14.3996027108        6.9031428690
  O         9.7877397744       14.6432374108        4.8536193434
  O         8.8048201911       11.7445719072        6.5043149873
  O        13.0104527206       11.1028468631        3.7017340823
  O        14.7211123830        8.0575405596        4.9355014187
 Si        12.4434776153       12.9147307072        0.0144753903
 Si         3.8417540565        3.0207039855       11.9745674230
  O         5.1835769104        2.1354287249       12.1796524281
  O         3.5457933845        3.0423808345       10.3660388264
 Si         6.6080082813        1.7049320654       11.5519101774
  O         4.1269501719        4.3434924066       12.8275653816
 Si         3.4151877606        5.6931851731       13.3340865242
 Si         6.4879293606        2.1108956074        8.4900826569
  O         2.4491452294        2.4513031134       12.5960030905
  O         1.8135504704        3.0514668840        8.3912494130
 Si         2.6555297717        2.0721964288        9.3893222843
 Si         1.8028225889        1.0396475440       12.0969567676
  O         1.8083174113        1.1471226975       10.4570227785
  O         6.4134534542        1.5480414940        9.9801121617
  O         3.4553907644        1.0720416790        8.3936047361
  O         1.9788991155        5.4246134192       13.9780209123
 Si         6.4670147038        6.7701322089        9.0589880173
  O         3.2819088546        6.4990988291       11.9387744074
  O         0.8271872396        5.4351342931        8.4735873067
  O         5.5155609369        6.5679203333       10.3643163592
  O         5.5110689883        3.3595970810        8.3193063304
  O         6.0038110741        5.8373389652        7.8087090144
  O         0.3415714903        0.6523115946       12.6646529895
 Si         1.9559336775        4.5456361693        7.7309118380
  O         7.1495420255        0.3294553355       12.1810830907
  O         3.5376256745        4.9420994717        7.8105836171
  O         5.9249501760        0.9037409373        7.5693465826
  O         4.3443426112        6.4154504887       14.4585090985
 Si         4.4759387286        0.1759878597        7.5063664826
 Si         0.6182583160        5.2642706173       14.8075530759
 Si         4.3561824537        7.3951116240       11.1394161566
  O         2.8702578674        0.0078137925       12.7467483790
 Si        14.7294698703        6.6481823823        9.0479183872
  O         7.8141379915        2.7256817514       11.8478433655
  O        10.5994587071        2.6274005227        8.8037899260
 Si        13.9340475045        0.7469489269       13.7495581216
  O         9.0591741154        4.1172648263       13.5687781299
 Si        12.2485971423        5.1943710791       10.3868000040
 Si         9.0537151410        2.6656885756       12.8827142310
  O        13.4789885285        6.1783441376        9.9669609952
 Si        12.1752370830        2.3878038166        9.0459251857
  O        10.7055677676        5.6783770350       10.0349277501
  O        12.6640961287        3.8649569726        9.5353883755
  O        12.3343264459        1.4817973674       10.3657578978
 Si        12.6305258395        5.4763819811       13.5373031630
  O        10.3921317743        2.2082170396       12.0922995846
 Si        11.6895858897        1.2619987654       11.8273783150
  O        12.2654709833        5.0191492740       12.0171646940
  O        12.7536066058        1.5578803812       13.0037866518
  O         8.0235179686        6.4244868500        9.4506249981
 Si         9.4236370331        6.6818445127       10.2781621740
  O        14.2270527999        5.3545823898       13.7439231154
  O         7.9844083800        2.6274242430        8.2181323484
  O         8.8163287992        1.6572602342       14.1077583993
 Si         9.4782641146        2.9419150805        7.7135894575
  O         8.1276263690        6.3898237142       14.3158984724
  O        12.1776899326        6.9922128104       13.8134943933
  O        12.9026901750        1.6500789429        7.7562104259
  O        11.9304888786        4.5922946659       14.6994489897
  O         9.0464348060        6.6701152915       11.8493553632
  O         0.9676642155        7.5639849147        9.8632909226
  O         5.2613129866       14.4015071401       13.7404854295
 Si         3.7161874698       14.4238884229       14.0690134730
  O         5.0972029446       10.7821599343        8.3910781711
  O         3.2787149747       12.9121266413       14.3254741989
  O         3.5382962129        8.2299600147       10.0204038787
 Si         6.7702753875       14.1069395850       13.3597951835
 Si         2.2648616274       11.7068971758       14.0495662348
  O         5.5164154857       12.5126591429       10.3292842102
  O         6.1840801755        8.3140325459        8.6302489556
  O         1.8079523647        9.7918954454        8.6434616649
 Si         2.0273206175        8.7681823092        9.9009937840
 Si         6.0577977269        9.2555463868       12.9561020355
  O         5.0059952573        8.2242597661       12.3445682533
  O         1.7268482092        9.5580878271       11.2713177806
  O         1.5696080448       11.7588194343       12.5884583680
 Si         5.4445813670       12.3388170584        8.7115356905
  O         5.9255669317       10.4600633089       11.9209497313
 Si         0.7798989050       10.8299093060       11.5111473008
 Si         6.5481645323       11.8070788380       11.3625323848
 Si         0.6540583070       10.9515697005        8.4863344590
  O         4.4477676768       13.4811558719        8.1394656817
  O         5.7487156832        9.7855135217       14.4619541085
  O         6.9165801328       12.6667031490       12.6726091126
  O         6.8432829421       12.5955184705        7.9829378857
  O         0.4194623673       11.4434074869       10.0377471942
  O         3.2097727069       10.4481101363       14.3845643508
 Si         5.7040400387        9.4844178702        7.6235010164
  O         1.0600929525       12.2409313711        7.5679584254
 Si         9.3112862309       11.9355391253       10.1609164559
  O         9.4618554273        9.4617066664        7.6632074201
 Si         8.3391084565       12.9214695033        7.5384812280
 Si         8.6238520938        7.4484172728       13.2030910479
  O        10.2839688205       10.7124785180        9.8074585071
  O        13.2370389386       11.6031987530       14.3141286852
  O         9.2822853795       12.9164331279        8.8669587065
 Si        12.8956075337       10.8008867534       12.9622012694
 Si        13.2117042024        8.9165024818        7.5942833844
  O        14.1674539419       10.2163898816        7.8156786547
  O        14.0623202207        7.5732705601        7.8984439344
  O         7.4949825837        8.5531543104       12.9185963003
  O        11.0340903149       13.0728028779       13.9829739165
  O        14.2147968683       10.3493469629       12.1852167087
  O        12.1009798785       11.8444162757       12.0041028074
 Si        11.4075256148        8.3281223276       14.2512804506
  O        11.9443112724        9.1255224141        8.5573861277
  O        13.4004989070       14.1579751618       14.3891677487
  O        11.4304324758       14.4856362566       11.8460647990
  O         7.6499020011       14.3103651834       14.7172996698
 Si        11.0497418899       13.0232876673       12.3514242304
  O         9.7171207627       12.6695963097       11.5296698697
  O         9.8722518590        8.2295830001       13.8220845993
  O         7.8184315420       11.4209624277       10.4496081765
 Si        10.4134859305        9.3584783517        8.9541532673
  O         9.9464922359        8.1425612550        9.8739036611
  O        12.0167179418        9.5423550622       13.4005652879
