216
14.893 14.893 14.893
 Si         4.9013315806        4.7281167574        3.3316293211
 Si         2.8229707860        2.8857434729        4.2503395052
  O         2.8900566630        1.3308385709        4.6423132965
  O         1.8269403249        1.4928894717        1.3985800908
  O         4.2177859942        6.0960057851        3.8062510214
  O         1.5684097770        3.2221064162        3.3132504655
  O         4.1368208784        3.3179918124        3.4714211550
  O         5.0238914609        4.8673815465        1.7075489810
  O         6.0416138910        4.5535370492        4.4672342483
 Si         0.7513503990        2.3564323121        2.2495284617
 Si         1.5757445096        4.1692964164        6.6658435856
  O         2.6532614314        3.8058089964        5.5398965279
  O         1.3283912941        5.7475091532        6.6101202965
  O         0.7514949091        0.6651551814        6.1101499315
 Si         1.2957690124        7.1713724839        5.8631206837
 Si         2.8001332650        0.4381565032        0.6782122972
 Si         5.0719389457        5.7377153307        0.3339385732
  O         5.8632929038        7.0254060525        0.8306660233
 Si         7.2499352385        4.6109146473        5.5182172035
  O        -0.0822642712        7.1233202959        5.0476492875
  O         0.2546968299        3.2233876295        6.5419593354
  O         7.2864728604        5.7896492336        6.6155669277
 Si         2.0050965677        0.1215864234        5.2412791618
  O         4.7991531168        7.2830747509        6.2096455154
  O         7.3578567564        3.3232844159        6.4579787887
  O         4.3015311603        0.1659098681        1.2577592903
 Si         4.1317140452        7.4113270578        4.7243748326
  O        14.7322998958        3.4693306955        1.4851552879
  O        14.7371371275        1.3158900251        3.0853057600
 Si        14.5234707022        1.7132850894        6.6462060285
  O         8.5237329142        1.2407822677        6.8757010136
  O        13.9769526763        5.1953996530        3.3915441968
  O        10.5190006743        4.6300551819        3.1412002423
 Si        13.4882654869        4.3044018520        2.1281661997
  O        12.4764616133        3.1291426043        2.5656971956
 Si         9.3935610943        5.7002918379        3.5649142626
 Si        11.8798414735        1.0772197163        5.0147870138
  O        10.9229681805        2.2355252192        4.3906328570
  O        13.1607223204        1.6618174382        5.7954375255
  O        10.0165565155        2.3163290685        1.9006126160
 Si        10.9300439383        3.0735375837        3.0184153852
  O         8.4457209146        4.7982562306        4.4680185095
  O         8.8626853844        6.4538346318        2.2321688971
  O        11.4199841749        6.6206211981        6.4422678227
  O         9.8401546128        6.9459252998        4.4614597836
 Si        13.8787342062        6.7512090262        3.8090975535
  O        12.6582700033        5.2923196785        1.1586254372
  O        10.9310535342        0.2666550022        6.0318498518
  O        13.2366107201        0.5865915505        1.2327467857
  O        10.4182319252        6.4557922757        0.1606055398
 Si        13.6669872519        0.1655146676        2.7057764100
  O        12.4805222072        0.1671662977        3.8068972209
  O        12.3820340192        7.2081489235        4.1373028330
 Si        10.1870280991        2.3994076735        0.2808392055
 Si         9.5749880866        0.0374868105        6.8712075710
  O         2.5303460174        7.5384361352        4.8954191606
  O         5.1263120539       14.7404163609        7.2729610102
  O         4.5457138920       12.1605725870        6.9478736692
 Si         6.5683724671        8.3867555297        0.4118669008
  O         2.9549927523       14.0694532196        6.1264208169
  O         2.1487451340       11.2611362694        0.4192390295
  O         1.5691892458       14.1408310670        3.9700979165
 Si         4.4892357297       13.6220378534        6.2880883185
  O         5.3757281392       11.1059525303        3.4770201912
  O         5.2267244617       13.4667682603        4.8470562237
  O         6.0356702008       13.3225972690        2.3243068609
 Si         6.0426234838       12.5517594136        3.7652687299
  O         4.8667521098        8.5947859473        3.8884489454
 Si         4.8718010475        9.7556105433        2.7519065756
 Si         1.9210079750       10.6331771386        1.8883706021
  O         1.4175883105       11.7449197088        2.9557889338
  O         3.3150664581        9.9373782927        2.3158564609
  O         5.8789138060        9.4354216267        1.4796442427
 Si         5.3157813946       13.8063659294        0.9538613591
 Si         0.5669981020       12.9406775816        3.6068835816
  O         0.7324603229        9.5934250705        1.7292597008
  O         1.3262068295        8.3574416897        6.9490556704
  O         2.0776335120       13.8787438183        0.5774757868
  O         4.3733578130       12.6625456081        0.2574837625
  O         4.9638790511        9.5747175606        7.3559560527
  O        14.3194482649       13.5746690042        2.6496319515
 Si        11.1696177205        7.5080141559        5.1305134763
  O         7.5264633185       12.2678245845        4.3807028393
  O         8.8574569017       13.6509944989        6.2042934427
 Si        14.3690782589        8.6634198770        1.3917596534
  O        10.0188057975       11.5736974583        5.0486694317
 Si         9.4842632768        7.4251915186        1.0753114591
  O        10.5085444033        8.6192112010        1.4150174916
 Si        13.7907656121       11.6262286135        5.9150608531
  O        12.6564738582       10.9222937948        5.0430898292
  O        14.7352506549       12.4913242262        4.9672588684
  O        14.3159739067        7.6119579911        2.5643746158
  O        14.6446480531        7.7730649490        0.0839015278
  O        12.9934941342        9.5099103726        1.2510478130
  O         8.1023357443       11.2453364240        6.7870320475
  O        11.0885247749       11.1683454419        0.5709769388
  O        14.7267801103       10.5228742048        6.6316555478
  O         8.1812295502        8.1939150303        0.4925238608
 Si         8.6232149006       12.1880675532        5.5732453000
  O        12.9914131753       12.5659163756        6.9691137682
  O        10.9224345406        9.0835196735        5.3735975160
 Si        11.1626419264       10.5125287353        4.6413110947
 Si        11.4500090628        9.9213311679        1.5513065362
  O        11.1765537854       10.4209946766        3.0485153562
 Si         2.8754929228        3.7754613734       12.0168127217
  O         4.2980909521        3.5640288515       12.7402371804
  O         1.9002552843        2.5729011591       12.4126905956
  O         3.1464060124        3.7186833029       10.4316464174
 Si         5.8157493988        4.0611799475       12.8209407440
 Si         2.5968055871        2.8419220487        9.1983949279
  O         1.1490664110        2.2399795542        9.6027330780
 Si         2.8802668870        6.4805786492       12.9991881854
  O         2.1575131139        5.1027319751       12.5719098296
 Si         2.2912242993        1.0436691872       12.6581273115
  O         3.6631625290        1.7224254429        8.6841031071
 Si         5.0599073128        0.8863909235        8.5184577167
  O         6.2085783049        4.8782569573       11.4921750941
  O         3.0492506859        0.9124905348       14.0616550737
  O         0.8961794291        0.2531188044       12.5723082231
  O         3.3971037779        0.5832648892       11.5816078143
  O         5.9686385908        4.9575985569       14.1446107480
  O         6.3068969518        1.8947689904        8.3524551499
  O         3.7260432743        6.2090993731       14.3893110558
  O         6.7859247405        2.8151085101       12.9108838370
  O         3.8058818450        6.7824849435       11.6765413958
  O         2.3242862967        3.8927955738        8.0387514386
  O         7.1950733795        5.9564709160        9.3391380506
  O         5.2862958652        0.0070479492        9.8595290584
  O         7.7064946525        0.4659465840       12.7408208738
  O         7.5214968120        7.0315473900       11.8208494446
 Si         7.4684720441        5.6895267892       10.8983887494
 Si         7.7483401039        6.5664944252        7.9472527998
 Si        14.4180411173        2.1399670776        9.5557431480
  O        14.1535281730        1.3204998548        8.1800802244
  O        13.9903889515        1.4803193478       10.9723553197
 Si         8.1418861977        1.9793873888       12.8844212147
  O         8.8303595170        4.8073947877       10.9237900635
  O         9.0199766421        2.3248692679       11.5739869583
  O         8.6028496915        2.9817732816        8.9383762555
  O        10.9376848990        3.4062896720       10.1754318333
 Si         9.3297238181        3.3552251668       10.3630456067
 Si        12.7662539072        6.1436537427       12.2987528350
  O        13.4919747984        3.4648960563        9.3505154904
 Si        12.2145636127        4.3442608986        9.8066535162
  O        12.8237933782        5.2095896765       11.0118322567
  O        11.6644195264        5.3756912295        8.6863978455
  O        12.3294653939        5.2916074527       13.5619474715
 Si        14.2257595227        0.3908617373       12.1513432546
  O         8.8551985432        2.1621553524       14.3158083860
  O        13.3990164332        0.6650737562       13.4936979584
 Si        10.9611507719        6.6288742498        7.9729123714
  O        14.1805189590        6.8724894547       12.5571855143
  O         9.3502208896        6.6195356082        8.1003550454
 Si        12.4690328314        0.3042285723       14.7559768574
 Si         7.7135601344        2.3623924992        7.7005858082
  O        10.6794744395        3.8924778417       14.8968052183
  O        11.5807498111        7.2095847167       12.0840264905
 Si        11.4968584640        5.2618059102       14.9177363917
  O        11.2342202141        1.3127895601       14.6486437399
  O         1.7406552596        7.6074169752       13.2358060674
  O         4.7110144505        7.3624276843        8.9454013246
 Si         4.5105779558       14.3740890130       11.1635447316
 Si         4.2309305496        7.7839275341       10.4588779667
  O         5.5513302636       13.9795825104       12.3262149120
  O         5.4501387587        8.5945761291       11.1593465358
  O         1.2307551235       10.1768419905        8.8509750301
 Si         2.5241336775       10.1305113881        9.8078520909
  O         2.5624103079       12.6591448072       13.1574261456
 Si         2.4011810340       12.3856916538       11.5794893699
  O         2.3189530462       10.8212274919       11.2482007892
  O         2.8983533486        8.6096404125       10.1107954091
  O         3.6485257135       13.0619150833       10.8350458989
  O         1.0603307052       12.9843811670       10.9214744817
  O         3.7227989881       10.9252071210        9.1049838798
 Si         6.7162695355        8.4182152146       12.1531858046
 Si         6.9100936597       14.0635314488       13.1968374897
  O         6.3014843597       11.4158761547        8.6964108266
  O         6.2851588116        8.6119271843       13.7107124635
 Si         4.8900347863       11.0345193824        8.0264347105
 Si         2.7941280310       12.6051219959       14.7482733722
  O         6.9399235065        7.9523904098        7.7650109477
 Si         0.1590344740        7.9075654357       13.4340618394
 Si         5.3253110638        8.0208311944        7.5675803322
  O         6.4632988598       14.1365125899       14.7509717671
 Si         0.4065269779        9.4405222690        7.6747006966
 Si        12.6027747512       12.1280577857        8.4774710008
  O         9.9299179754       14.7950559974        8.4497118616
  O        11.9990027277       13.6711952276       14.9052680967
  O        12.0031934274        9.7513108943       12.7202539893
  O        13.9766974455       11.2602043779       11.4980653026
  O         7.7025411355        9.6042729978       11.7444285593
 Si         7.8813423577       11.3392327487        8.3836412855
  O        14.6476565663        9.4305170293       13.0738908416
 Si        11.5521071449        8.7133131272       11.5645686274
 Si         9.8910208079       13.5069718837        9.4152943578
  O         8.5151975455       10.0879697276        9.1958375979
  O         9.4343027156       11.3833568298       11.2533608560
  O        13.1488277622       11.5983257093       13.9129822676
  O         8.0217008614       12.9056193172       12.9058405368
  O        14.0631975967        8.6030573410        8.2782348800
  O        10.6611724893       12.4893340464       13.1669544581
  O        13.6555009384       13.8884155544       11.5865799446
 Si        14.3802744593       12.6629273485       10.8462136443
  O        10.1048644881        8.9310075900       10.9278726069
 Si        12.6604579139        9.0323789658        8.9093038478
  O         8.6011576902       12.6633340563        8.9381756604
 Si        11.7024524402       12.1951903206       14.3648210413
  O        13.8903005341       12.5701778097        9.3292787178
  O        12.7456267784        8.9338397379       10.5047351592
  O        11.4864489390        8.0308890064        8.5246351568
 Si         9.4444071192       12.7022570713       12.1475543983
  O        12.3319995222       10.5299739611        8.4421695575
 Si        13.4653069360       10.4824054541       12.8002249677
  O         9.7632306883       13.8271099764       11.0025126449
  O        11.2669585139       12.7376715125        9.0989957055
 Si         8.9047218513        9.9766656506       10.7599807354
