216
14.977 14.977 14.977
O      14.930364043200012      0.684072206400001      4.577834573900004
Si     14.741732956300007     14.075474363400001      4.865057725800004
O       0.867947251100015      2.464042592799998      6.269309214700008
Si     11.333144621500013      1.592247684200003      7.638490867500016
Si      0.351112989500021      2.249073172600005      4.737087441600004
O      12.269568878400008      1.843793887899992      8.932270957099998
O      11.956523356600018      0.457574543200001      6.691099353800007
Si     11.850664139600017     13.908279867199990      6.163454287200006
O       0.871681953300013     13.555831259900000      5.956712123000001
O      11.716862983400020     12.837640211499998      7.381006556499996
O      13.274400566900017     13.696297467299999      5.429629240899996
O      14.032465569000012      3.167442899699998      4.336646309000010
O      11.251884231100009      3.009584835500000      6.840192801299997
O      10.547222313400010     13.764997272899993      5.197340490300001
O       1.581786075000018      2.714629088100004      3.790528216500005
O      14.848652592400011     13.319710683099999      3.426114145799999
O       1.191454037500005      1.915870259800002      8.860750951500007
Si      1.856327525800008     12.302667022000009      9.657276640099997
Si      1.868294864500012      1.912050238099997      7.424418717300005
Si      0.841218950700008      2.489432557000008     10.290716863200004
Si     12.845390901000011      3.694644101299992      3.361864466900001
O      13.364078960500015     12.220431165600001      9.323917839600004
Si     12.893172362400003      2.347599429299995     10.322316850800004
O       0.656023965300011     13.229106073999997     10.191860564300004
O       0.643786288400012      4.100226355200005     10.197098074700005
Si      2.214538817400015     13.794390712699997      6.835378729500004
O      14.389599172000009      1.838000113400000     10.589788634800001
O      12.985276505900012      3.969219421699994     10.341600740800004
O       2.292394248000011     12.924799552699994      8.219239724799996
O       9.900691381400016      0.989285954799995      8.084686317699994
O       2.288926020800009      0.395574846599997      7.141853210999999
Si      9.497555498800009     13.871314935800001      3.958019166900002
O       7.583681558300013      2.754111803399999      3.940754452700007
O       8.383186427000004     12.697396675500002      3.875160670200003
O       3.143878556000013      2.852148465200004      7.632246969900001
O       8.674562940900008      0.284995189600004      3.952412325399997
O       3.545140352800015     13.468484492300000      5.964428544200008
O       7.597241902900015      1.222203012499989      6.057680649700009
Si      4.464603237100005      3.630984497099996      7.206726879199997
Si      5.133825407400011     13.466532207800000      6.279984934799995
O       5.638854926500006      2.539298128600002      7.068352530100006
Si      6.491872021299995      1.179391585499998      7.218093209999996
O       7.297095416599998      1.049592206200004      8.616274858500010
O       5.555090633800003     14.882811516499995      6.919221944400002
Si      7.481181609300014      1.224918830199995      4.466758771000007
Si      8.788518640400014      0.988277205199997      9.258740369700003
O       6.044055091600011     12.992960991299999      5.039317632200011
O       5.408891281400008     12.372281026100001      7.383902404199999
O       9.149441052600018      2.323212006499995     10.121079281100005
O       6.016804482300001      0.684543726699997      4.009869173700005
Si      8.850870877300013      3.858243044000003      9.697551485800002
Si      6.998269171100006     11.946281450500003      4.247064909999999
O       5.339095737500022     11.910883181800003      9.879041804600011
O       8.913293688400010     14.645535706299990     10.176086925800004
O       7.267180007700002      3.812680733999994      9.404432858700003
O       3.761579010600011      4.350217167699996      3.345695660499998
Si     12.092169506800008     11.692846735200000      8.469450755700008
Si      0.058559032000014     11.759927143800002      3.059669943200006
Si     10.331633404100010      8.403496639300013      3.285133979500003
O      11.622983278700012      4.424168108599997      4.119496530500004
Si     14.267391567300004      4.959672435800001     10.044577607700004
Si     10.640152072900010      4.487494095999996      7.139593147800008
O      10.934450033400008     11.441018122300001      9.569839019600009
O       1.107582453900018     11.274727899799998      4.175780668600003
O       1.276305393500012     10.808032330099998      9.488781184700008
Si     13.412787567200022      9.314989596400000      6.924527358699994
O      14.823206799800015      9.647938841900007      7.602578663400006
Si      0.809776519300015      9.408918876700003      8.855752392699994
O      12.575559802400013      7.384637198700014      9.475983860300001
Si     12.875037059000002      6.557234075499989      8.109896004899998
O      11.719980302200016      5.582176829500000      7.611758310299996
O      13.514445721800016      9.645474081200007      5.363674395300002
O      14.129036333200007      5.591458721099999      8.541543421700004
Si     13.006453692000012      9.618955806700004      3.842403462900004
O      12.349648993300017     10.279599658399995      7.694858459200003
O      13.128688187900014      7.708010734799998      7.005257160999992
Si     10.304416322100018      5.357571679700006      4.268845382600011
O      10.563796374500011      6.904954845000000      3.877165353900009
O      11.395485573400014      9.482063881999995      3.874042104100003
O      14.934355513800019      8.551792968299999      9.959679029899997
O       9.919927680300013      5.119929278400000      5.830249469500000
Si      2.101388357700010      7.469790967300001      3.387652211500008
O       2.150689040900009      8.772755880900011      8.166268587799994
O      13.615930878800009     10.963700560900001      3.168318239400001
O       1.895730237500018      8.858368118999998      4.171219427900003
O      13.507967536300013      8.321894458000003      3.019074395300008
O       2.497870963200015      6.289708338300007      4.419001385500003
Si      5.255242073400002      7.739932249800008      5.566486800099999
O       3.680755216400009     10.802321452799994      3.720929460900002
Si      7.761426824100012      9.052893948200012      4.908323922200005
O       9.617279748000014      4.259572843900001      8.349560715200012
O       7.508079353100015     10.654364373200004      5.117494741999987
O       3.983773519000009      4.411950685600002      5.891777914500008
O       4.377138180400010     10.108529183800005      8.087766826699987
O       2.593538535000015     10.508199207300006      6.141430418000008
O       5.025306394700003      6.383516383200004      4.731817330200001
O       8.275723421900004      8.087905176999996      6.157058047800005
O       7.356532258500014      6.038520269699998      8.226173527700002
O       9.064518872400015      4.873505606599994      3.318863498300006
Si      5.495440020300010     11.221742909900001      8.440242593399990
O       3.859379956700016      8.388504313800006      6.053669071700009
O       8.131096549800009      8.319889378199996      8.698967638499994
O       8.774928182100012     10.188121997800003     10.353832647000008
Si      2.357508597500008     10.360973351900000      4.547017698600007
O       5.958684959200021      7.621908985100001      7.008427210700003
Si      3.804508260300017      5.344263668999997      4.604977635600006
O       6.970970079800013     10.582253714600000      8.390609156100011
Si      7.591930537900009      9.589054735900007      9.495652529800001
O       5.016453337800006      4.728372844599998      8.252639519399995
O       6.249139751900008      8.552128975999999      4.583552185900000
Si      6.343981798700005      5.096098312499996      9.088402124300000
Si      7.488500000000000      7.488500000000000      7.488500000000000
O       8.836921341900009      8.862375587800006      3.719356329100006
Si      3.249530073400008      9.422776905500001      7.155310704900000
O      14.600602389600015     14.399572808299997      0.357501285699999
Si     13.229403039500017     13.985575414300001     14.623578785300008
O      12.747276194200014      0.122554295200002     13.551937235800004
O      12.038227680400007     13.684221228600002      0.673740686900011
Si      1.019841344200006      0.183674830699991      0.211304751200007
Si     12.388330484400004      0.065302014499999     11.985321759800001
O       1.432155568000013      0.514511680799988     13.633381368199998
O      11.052094599100011     14.240857374999987     11.676685544000005
Si     10.645564334900008     14.338356178699993      1.120450645400003
O       0.733732805000022      1.627788752399993      0.903830201800005
Si      1.102523265700011      3.144585097299995      0.437180909200003
O      10.867344125600010      0.940709773999996      0.902914706900007
O      13.521115176300011     12.631074765299996     13.862367280199999
Si     10.922245026200011      2.368799528000002      1.591039036600010
O      12.117272747600014      1.596585899199999     11.514636612899999
O      10.698864297500013      3.560714650600004      0.525662605100011
O      13.507777739200014     14.170020318299994     11.205120710600010
O       1.429958096700009      3.100903325400002     13.841012685000003
O       1.886334417600015      2.071988134200004     11.441380067500006
O      12.278145539200013      2.469418648100002      2.464400618800001
O      10.394384898700009     13.859900587999991      2.624124452600004
Si      2.085566474100013      1.879128223999991     13.025681527799996
Si     14.138790121700007     12.812775042299997     10.613654468300002
O       2.168100569000014     14.259012553199991      0.916197436600011
O       2.363638962600017      3.492749099999998      1.382005565600010
O      14.940233435200012      4.255050874100005      0.515405466400011
O      14.232290111500019     11.588926452600003     11.684666512300002
O       9.712194119800010      2.463840916800002      2.627092217700005
O       9.385749663400013     12.369026982100003     11.515787917900006
Si      8.475040442500010      3.458643040299995      2.799721955999999
Si      9.490652791200011     13.983800753999997     11.530640316200000
O       9.372604895700015     13.935609095799997      0.206058493200012
O       8.757228980800013     14.710910044399990     12.758636093800005
O       3.636224738700010      1.925278093700000     13.399503066099999
O       5.331549101200015      3.260897492900007     11.906808030200004
O       6.030583989700020      1.449685363999997      1.534746869300005
O       7.992279209300015      1.194904307499995     14.865711508200008
Si      8.248603553500001     14.669396531899999     14.282700400000000
Si      5.187478036100014      2.176384384000001     13.101341258900003
Si      3.694359702600011     13.713716672999997      1.038077649000003
O       6.014060180900007      2.841315897199997     14.332122868100008
Si      6.960622217900012      2.272999133400006      0.528379013200007
O       5.090304044500009     13.220744153699993     12.200988598400009
O       5.720516959400012      0.669174543399986     12.848109902000001
Si      5.490487504100006     14.146988127499998     13.454912022000002
O       4.322659977600022     14.016785521499997     14.557061682200011
O       6.876574452200007     13.794835937499997     14.237783551099994
O       7.669996770400004      3.474159958900003      1.375280871300006
O       3.859244690400012     12.159054417400000      1.458416990700004
O       4.474577434300008     14.468621854300000      2.226454747100001
Si      5.094188361700011      0.885789760900001      2.697788276300010
Si      4.553884887900015     12.019821726400000     11.267806554600003
O       3.006548260900015     12.226578089200004     10.810906271600004
Si      2.856616875600016      3.099122846999996      2.869701092900005
O       3.841893673700014      1.842596060599992      2.937236019700007
O      13.280686316900015      4.815865413499999      2.300240106200001
O       0.714524840800014     11.500081295999998      1.595039037700009
Si     10.933248479800007      4.911171114900004     14.652355709799998
Si     14.098188645900013     11.285623758200003     13.266151237500008
O      12.562556798600015      4.957532526700005     14.574605987100004
O      12.891996989600013      8.332408876399995     11.823608449299996
Si     13.664572967800018      5.177746065200004      0.778661913800007
O      10.873961300900007     10.112078816800000     11.909771480800007
O       0.485864725000015     10.816941708500007     14.017870816300000
O      14.913925463300014      9.092840412100006      0.990959665300007
Si      0.895596990700017     10.285987608900008      0.520985986200010
O      12.969650400200020     10.189363865899999     13.545704297800004
O      11.255067730700009      8.329069462699998     13.940262515000001
Si     11.942484241900013      9.232408697900002     12.779614643800008
Si     10.320107650500011      7.866521088100002      0.211862659200007
Si     14.509174916000019      7.817275734899988      1.868822819600012
O      13.907537495600016      6.763272331099992      0.822457091400005
O      10.473190464300009      6.268400175999997      0.431259096599998
O      10.556863361700010      8.475659912400001      1.683201289500007
O      14.291284467100017      6.227398965100005     11.048176083900001
O      10.022240918000014      4.869541263600000     13.309602351800013
Si     10.038004879600008     11.032565814100003     10.853543344200004
O       0.741772207200017      7.073892452999996      2.627902781800007
Si     13.702412368900022      7.681885461599999     10.610561313200002
O       2.372753081700008      9.636990045399994      0.518502665500006
O       5.872960973700016      5.578171217299997     10.582733921700004
Si      5.847591740800024      4.802920289500000     12.027212763100007
Si      3.598868289100018      8.680348923200011      1.003876386200006
O       6.570938157900006      7.155885130000006     14.236602679899999
O       4.866577758300010      5.599320384100000     13.070676869400000
O       7.197419680600005      9.257971124500006     12.854564361900003
Si      5.842591283000015      9.335535460499990     11.941663115000004
O       8.609894516300008      6.986823300099997     12.531206011800002
O       7.366932632299996      4.730457286899997     12.610233149700004
O       4.930661331800013     10.659882617999997     12.075417733400013
Si      8.824638949400011      5.382550277800001     12.335911295200006
O       4.723489751800006      9.720744739500010      1.532513269300011
O       8.827768976600003      8.319906368700000     14.779998927499999
O       3.216573282300013      7.701286843400000      2.237510949900010
O       4.936999676600000      8.084367969700001     12.378083249700005
Si      7.821795757800015      7.951193884500000     13.593488946200004
O       9.230823949600014      4.953635296199997     10.826439312200003
O       4.074774926200013      7.687920423000003     14.795378515100005
Si      4.618887799200012     11.079213182200004      2.421815876300001
Si      5.055612393900009      7.103732006999999     13.660812338100001
O       6.340602440700001      9.174074169499999     10.424956919000007
O       6.103158893400010     11.510931204999995      2.942790938800007
