216
14.991 14.991 14.991
 Si         2.2423671870        3.9886363556        3.5811379944
  O         3.2795287537        3.3436400912        2.5030022285
 Si         4.3842854209        2.1579544605        2.4450935039
  O         3.0469345073        5.1484659813        4.3668278636
  O         3.5799662762        0.7584044442        2.5019269108
 Si         6.5040138572        1.4931178864        4.3351903631
  O         5.3801372242        2.4311307961        3.6777788182
  O         1.5684819690        2.8154932893        4.5255645885
 Si         3.2554768373        6.6034083026        5.0476829511
  O         1.0197900759        4.6831032498        2.8073676673
 Si         5.9770207368        5.9049526974        6.1477155241
  O         6.5605895785        5.9450239461        4.6220803388
  O         1.4831594344        1.3250103143        1.0211478540
  O         4.4326136189        6.3986083966        6.1582251426
  O         5.3184679632        2.0247221479        1.1567500224
  O         7.0355262897        2.1805708311        5.7074208091
 Si         0.6160538751        6.8105582919        6.5279548305
  O         1.1660117549        0.4607783717        3.4276084349
 Si         0.5302109849        1.5471643157        4.4082584453
  O         6.0146733921        4.3901073162        6.7057119565
  O         1.7821055434        7.1044656003        5.4672949668
 Si         2.0728496226        0.3171176697        2.1326755278
 Si         6.4946688724        2.8995768399        7.0743233822
  O         0.3102841974        0.6381440233        5.7346983172
  O         6.8579717144        6.8895152508        7.1016581194
  O         1.0211771692        3.9028827607        0.3175091831
 Si         0.1132102102        4.6298412816        1.4758887421
  O         5.7157031996        0.0938950153        4.5379968771
 Si         7.4888582682        6.7128378002        3.5335569045
  O         7.5739030345        5.9299006867        2.1225601572
  O         7.7283574162        1.2492015543        3.2898633745
  O        14.6000758688        6.1681930490        1.2475405524
  O        14.1092111344        2.0451774368        3.8092888482
  O        11.9486537994        3.5096901441        3.5048161700
 Si         9.9191778421        6.0662073581        5.2550832594
  O         9.8377844428        4.5319867512        4.7615029869
 Si        10.8287550780        3.2736705478        4.6289917342
  O        10.0005735618        1.9630551329        4.2894819108
  O        11.5631662952        3.0523351517        6.0248009618
  O        13.8225297676        3.6655421080        1.7213004274
 Si         9.2313281888        0.7398364998        3.6362914016
  O         8.9715427582        6.8857403468        4.2117180130
 Si        13.0678638458        2.6501698070        2.7211507854
  O        11.4792522506        6.4749437930        5.3730018868
  O        12.3343866998        1.4752996500        1.8736615169
  O        14.2067279254        6.3990010697        5.7769287644
  O         9.3013204747        6.2549743361        6.7365005866
  O        13.1225579206        6.5578050211        3.3600538399
 Si        12.9456822448        6.9843975895        4.9092958676
 Si         8.3326921783        6.1589795196        0.7220008010
 Si        11.3207889755        0.3147215111        1.3570606405
  O        10.0807783995        0.1583811611        2.3992554544
 Si        13.4727879518        7.1662703608        1.9042279639
  O         9.6047689296        7.1079692615        1.0028506424
  O        12.2364006227        7.1194302659        0.8665765835
  O         8.8192282405        4.7038022547        0.2381849726
 Si         3.5889159615       13.3414478689        6.8442490083
  O         3.7457373751        7.9053800701        4.2017064339
  O         2.1961973156       13.8046719640        6.1607446596
  O         3.2766768929        9.7608352862        6.0863508451
  O         5.6288021207        9.6075506907        4.8409417042
  O         1.9697222961       13.7400051967        1.7813587563
  O         3.5919695523       11.6352612648        1.2500947455
 Si         4.0168673083        9.4295256538        4.7030036544
  O         3.5668750939       10.5298005553        3.6020660599
  O         4.8365557631       12.8837313127        3.1283963316
 Si         4.4747376375       11.3995699467        2.5808078727
 Si         5.5482384121       13.4953339734        4.4434085353
  O         5.8613397257       10.5385404132        2.4245484307
 Si         6.6168294620        9.6200650528        3.5520542426
  O         4.6796254871       13.0355101698        5.7045599031
 Si         2.6360085552       12.8006383717        0.6557119228
 Si         0.6037105440       14.0893656416        6.1896260831
  O         7.0283852310       12.8726649179        4.4419412836
  O         6.8100124592        8.1024839580        3.0623872374
  O         0.2285157284        8.1276104183        7.3454028528
  O         0.1560425691       10.6212156762        6.3937150653
  O         0.2444492238       10.6337806623        1.3165646527
 Si        12.5068376727       12.3825674390        0.8191503714
  O        13.8154917101        8.7342132699        2.1829594879
  O        12.7212694913       11.1550213280        5.5518878583
  O        14.6059161911       10.7637320974        3.8270302922
 Si         9.5185887930       10.7230177098        3.5985051088
  O        14.7601709862       12.9728620942        5.3243198899
  O         9.0518790485       14.6127414728        4.7700122863
 Si        14.3061700132       11.4115385698        5.2722762372
  O        10.6989913336        9.9091195978        4.3589110448
 Si        14.0786753348       10.3196137358        2.3803404097
  O        11.3260366170        9.2884245991        6.9474630574
  O         8.2830898521       13.0288371794        6.6527735830
  O        12.1765062833       13.9129006662        1.2516504414
  O         8.0875225061       10.0900903920        3.9679620543
 Si        10.8838431088        7.6709639484        0.1934104230
  O         9.6101478819       10.7793601217        1.9636587868
  O        10.8545419043        9.2784814989        0.2369370222
  O        12.8881629816        8.6005735355        5.0081714635
 Si        10.1056439563       10.6889562856        0.4089869649
  O         9.5264524936       12.1788133396        4.2946818736
  O        11.1644803568       11.8651408101        0.0846146035
 Si        11.8655866313        9.7674547550        5.4873394850
  O        12.8121175840       11.3155082306        2.0292692175
 Si         8.4860946159       13.1438684158        5.0540012814
  O         3.5889495560        2.4909691755       11.5346906026
 Si         1.4054322962        5.1827250734        9.0078290889
 Si         3.5722684782        1.5345294147       12.8498601212
  O         1.2514860048        2.0309674810       10.6187890231
  O         2.4996722144        4.0693280741        9.5199531383
 Si         4.6597184836        0.8486247795        8.5477528676
  O         3.3542413621        1.5661035415        9.1423001336
 Si         2.6897092045        2.5840751280       10.1839039646
  O         2.2485762942        2.0283431967       13.6744232078
  O         1.4881294506        6.4742679184        9.9863776533
 Si         1.3805888075        6.8287797464       11.5653645024
  O         4.9236199814        1.8008981701       13.6652076822
  O         2.9331069915        6.9646020885       12.0915844995
 Si         6.9991119925        6.2716496269       13.0121950749
  O         5.4629181368        6.7998365872       12.8005358139
  O         5.7720660110        0.4750456797        9.6728318602
  O         6.7981832886        0.1587210846       14.6767772007
  O         7.2550159291        2.6548934043       14.6054404229
 Si         6.0625792448        1.6248889341       14.7852355974
  O         0.3201957962        5.6960673380       12.0981489709
 Si         1.1244113731        2.3369667015       14.8136008832
  O         5.3026422609        1.9411119027        7.5615382930
  O         7.4120211408        4.6820162322       13.0408508957
  O         1.4070939035        5.7656942911        7.4974814192
  O         7.4289624318        6.7919527146       14.5020268245
  O        -0.0056139535        4.4465097730        8.9773540201
  O         7.4938783391        3.0380559014        8.3432878630
  O         7.8172063757        6.7850049696       11.7076047284
 Si        14.7846109983        1.3870304471       10.5770356349
  O        14.5949863788        2.0171373524       14.3660485685
  O        12.4809930818        3.7571193613        8.2693259272
  O        13.8905867342        2.1695469701        9.5073231505
  O        13.1984479220        4.5235335700       10.7093534780
  O        14.0620282933        1.6525043299       11.9623573583
  O        13.5948862288        4.1234811357       13.1840133964
 Si        13.6222445296        3.7451389533        9.3694440721
 Si        13.7322520073        5.2702171780       12.0508217691
  O         9.1346061191        2.1997088186       10.3054426614
 Si         9.5403538227        0.7308441744       10.8171014226
  O        12.0174349649        2.0991595444       13.3575981114
 Si         8.8018126772        3.3589709305        9.2370326526
 Si        13.5567770855        2.4952051731       13.2291645621
  O        12.7833213236        6.5748366758       12.1767301102
  O         9.8376171943        0.7091353112       12.4099629152
  O         8.6650243667        4.6837720357       10.1499932103
 Si         8.8287874189        6.2419303722       10.5520464168
 Si        10.5074538109        1.6138241232       13.5880086948
  O         9.5978340212        2.9581028503       13.5839396065
 Si         8.2732977458        3.7398944601       14.0650572180
  O        10.3244228528        6.5528005848       11.0991078810
  O         8.5095025552        7.0259121905        9.1921192994
  O         9.9713193328        3.4510074720        8.1384759802
  O        11.3228714470        1.2411377140        7.8136735394
 Si        11.3248801125        7.3009453825       12.1333215257
  O        10.9266674079        0.2421030065       10.1691032747
 Si         8.3561488103        7.2444516672        7.6086868498
  O        10.6130884645        0.7147697863       14.9361746746
  O         8.3615338701       -0.2313252024       10.2288720029
  O        10.7684782700        7.1864827386       13.6494605737
 Si        11.3465975884        2.8393346922        7.5871378045
  O         3.6669603677       14.9043981124       12.4916098360
  O         6.7872137377       15.0648888516       12.1018315783
 Si         4.3614871515        7.7886931247       12.1077182406
  O         3.5152762959       13.8141690192       14.7583294073
 Si         6.7791322236       14.5871261843       10.5553118065
  O         4.9165549387        8.2207913941       10.6196860161
 Si         4.1203194211       13.5353812828       13.2901971564
  O         3.5892328248       12.0983420792       12.8021058231
 Si         3.5061287747       10.6433946377       12.1353029141
  O         1.9510930584       10.3891545150       11.9412197009
  O         4.2110663688       10.7659329836       10.6987801712
 Si         5.0202090764        9.6573762692        9.8489482484
  O         4.3666709613        9.5387310194        8.3935701463
  O         6.4843789747       10.3261573605        9.6821389765
  O         6.3305142046       13.0348290139       10.3877567309
 Si         0.5312567475        9.7615329814       12.2598330348
  O         4.1330322772        9.2719034418       12.8138681863
  O         5.6960155664       13.2016133002       13.4258473430
 Si         7.0064848571       14.1337498866       13.4165531388
  O         0.6242086031        8.1923967815       11.9486309088
 Si         7.1988855475       11.6607838014       10.2495740908
  O         1.7972677456        9.9978254144        8.2722227357
 Si         3.2244374713       10.3429807298        7.5899272994
  O         4.1463562411       14.5115195016        7.8046252946
  O         0.0804319617       10.1476396088       13.7555508577
 Si         0.1480586290       11.3177602348       14.8598293421
  O         1.4889130992       12.1834935217       14.6891794753
 Si         0.3242883124        9.6855592045        7.6893384852
  O         0.1669177139       13.9744136824        7.7237247381
  O         3.4307019789       11.9461311338        7.6487942449
  O         8.8195355083        8.7888825074        7.4175949950
  O         9.9174179430       11.2446927319        7.4169585239
  O        14.8308032244       14.8387144303       10.1683901889
  O        14.1360897913        9.9864487944        8.7437181806
 Si         9.1817126715       12.5773931856        7.9124900171
 Si        10.0663207656        9.7184835343        7.8866345008
 Si         8.8217870038       11.6543346167       12.8029557549
 Si        11.3051889739       14.8561819057        8.6537493947
  O        10.2091309755        9.6737550358        9.5131591733
  O        13.8100839452       12.2642179335       14.8377361496
  O        12.7521929925       14.2032839012        8.5965426465
  O         8.9779795237       10.8556451177       14.2191094985
 Si        10.9435466935       10.2004916401       10.8822773639
 Si        13.7716298473       10.9519807936        9.9805000144
 Si        14.2548752309       13.8663360912        9.0267558590
  O        12.1991756877       11.0189599479       10.2976466869
  O         8.3502046804       13.1911110973       13.2695799796
  O        10.1402889748       11.2422037521       11.8740349319
  O        11.3989207885        8.8748418273       11.7117609472
  O         8.3599677155       12.1030491741        9.2170147840
  O         7.6560908594       11.2397196933       11.7529584292
  O        14.3527196961       12.3931040034        9.6202182245
  O        14.4315689072       10.3937391096       11.3095836352
  O        10.2324855833       13.7561987515        8.1805484736
