216
15.059 15.059 15.059
  O         4.8656545996        5.4188246868        5.5851986787
  O         4.4081622721        1.5902967644        2.1516483972
 Si         5.4063227633        2.2195115332        3.2489414811
  O         4.8586987926        3.6227045912        3.7583050261
 Si         4.8094265194        5.1970560787        3.9873760064
 Si         2.2423051410        5.2167270539        2.1112760577
  O         5.3985443188        1.2436878570        4.5447801405
  O         3.4769803594        5.6485121076        3.1282517658
  O         1.5576907858        1.5722700107        3.3764474890
  O         3.2987715885        1.3300147280        6.2597195543
  O         0.9500771893        6.1829904041        2.2748528258
  O         1.6448207383        3.7702209084        2.4188264528
  O         0.9613108666        2.1976644607        6.4369820683
  O         6.1923113146        5.9576292898        3.5962368417
 Si         5.7393096138        6.1874408737        6.7264500864
  O         2.7345599066        5.1154440482        0.5633444468
  O         6.8204667160        2.5170190310        2.5200882560
 Si         0.5557097706        2.7289075763        2.9269000964
 Si         4.2376831522        0.4120354864        5.3328620018
 Si         1.2515401442        7.1309826031        6.2651098857
  O         1.0237148113        6.5873974102        4.7840546156
 Si         4.3024980722        1.5760674606        0.5458400914
  O         1.0368534608        6.0437996821        7.4436804332
 Si         0.2216313263        7.0256466540        3.4510061337
 Si         2.1251688133        1.5133032073        7.3174973045
 Si         7.3946519516        6.1982065411        2.5608520090
  O         7.3560476519        6.1155709397        6.8219139013
  O         7.3769853458        4.9332655806        1.5710319503
  O         2.9755706498        0.7974053092        0.1513275085
 Si         1.6142924363        0.0114302726        0.3735365745
  O         5.4944686080        0.7129365034       -0.0685790558
  O        14.8307504023        3.2202987868        4.2284285587
  O        14.5034121439        4.3136501984        6.4480350724
 Si        14.7382315862        2.8845080243        5.7800746097
 Si         7.7005064854        3.3621891091        1.4572312019
  O        11.5196527809        0.5964160315        6.9082294122
  O        13.4922532303        1.9018136435        6.0290832693
  O        14.4473194560        2.3461814110        1.8818379768
  O        11.1494491657        3.1276986062        6.0442758128
  O         9.2356650035        2.9718260566        1.7094608307
  O        11.8451094904        2.7474783317        1.7994379690
 Si        13.0246785238        1.7164239014        1.4181869148
  O        10.4263437194        3.9109633675        3.7533719416
 Si        10.5956159511        3.6843274235        2.1747887138
 Si        10.7705887005        4.4465831277        5.2183381803
  O        11.9207193387        5.5640247344        5.0221681429
  O        10.6741105163        5.1480292983        1.4751167158
  O         9.5583525589        5.1775446274        5.9761504402
 Si        10.2006446313        6.6052448836        2.0137656027
  O         8.9387360469        6.3547526925        3.0423860006
 Si        12.1039497374        2.0934279040        6.8228435592
 Si         8.9628487816        6.2183837474        7.0587662862
 Si        12.1815503062        6.9757032299        4.2778385655
  O        13.7263263696        6.9043150801        3.8402158167
  O        11.3760584035        7.2118590769        2.9035830365
  O        12.7871359452        0.3063162685        2.1971610656
  O         7.1332224426        7.6035002682        1.8868757745
  O         5.3954221626        7.7583952439        6.5085962511
 Si         1.8376064792       15.0766910003        3.5199529065
  O         3.3095002037       14.8108379038        4.1550947803
  O         2.7398420258        7.7602850371        6.2809900040
  O         0.8461018943       14.5821313473        4.7053054958
  O         4.8755965922       14.4991925288        6.4477281930
  O         1.5677273890       14.5812915109        1.9611829214
 Si         4.1134664140       11.5449561686        5.9059768269
  O         2.5806245941       12.0129081516        5.7383884628
 Si         4.0573067206        8.6284098246        6.6473960341
 Si         5.8707228515       11.6964189454        3.4574899214
  O         5.0967674511       12.1566732143        4.7864117357
  O         4.1587940980        9.9424813896        5.7330755926
 Si         3.9732844460       10.0960821186        1.6836246067
  O         2.6820721886        9.7132194378        2.5901587164
 Si         1.1067207501       11.3429750504        5.7321061833
  O         4.7062904637       11.2950761868        2.4355756967
  O         6.5874008703       12.9221494239        2.7464674339
  O         5.2716490650        9.1768811335        1.3278805028
 Si         6.6704600728        8.5780516972        0.7297283441
 Si         1.0956049155        9.9243857795        2.9003559077
  O         1.0176901744       10.4352802907        4.4202350676
  O         7.0609358927       13.2566141381        6.8213133899
  O         0.8683392169       10.5840805699        7.1417872672
  O         4.7088210664       12.0815409978        7.3060839381
  O         0.3832494065        8.5110671667        2.9083157302
  O         7.0733774099       10.6549638060        3.8365594209
  O         0.0978123185        8.2269922045        6.5771590485
 Si         5.5976800830       13.4315047505        7.4365442087
  O         3.2140946057       10.3639674300        0.2897501532
  O         7.2153615611       15.0598123694        1.6861967885
  O         0.2195851165       10.8270999856        1.8737988371
  O        -0.0824556671       12.3934718696        5.6451224379
  O         9.8902207577        7.6046579861        0.7910983188
  O         8.0358657466        9.3438639907        0.2306646244
 Si         8.6345060061       10.8391386903        4.3108634735
  O        11.0563092542       12.8588877558        7.1326972797
  O        12.7534111947       11.0526956002        0.5641664280
  O        10.9871848678       10.1318853079        6.7411573655
 Si        12.9290482140       13.9125435386        2.9131506863
 Si        14.1893169598       11.6908727424        1.0262211887
 Si        10.2191321917       12.4916114513        2.3976307741
  O        11.6184255568        8.1581175891        5.2429331647
  O         8.7105974802       12.1645047145        5.2489551666
  O        13.8922781552       13.0095082668        1.9511359226
  O         9.1787729672        9.4982266320        5.0147595847
  O         9.2598223214       14.5154563824        6.5113724695
  O        14.3674886804       14.4326764539        7.0603437167
 Si        10.6103600093       14.4069060658        7.3796137854
 Si        14.6397409572       13.9506263685        5.5044149103
  O         9.6434895640       11.1425407280        3.0767115507
 Si         8.1779185924       13.6195582425        5.7402679006
  O         9.1454479560       13.6573099091        2.5144070742
  O         9.5723669106        7.7104049945        6.8193612292
  O        10.4298581426       12.1724222762        0.8586515050
  O         7.6830146023       14.5012965274        4.4572126799
 Si        10.3425292820        8.8608537577        5.9618639648
  O        13.4142663871       14.1179294756        4.4565513489
 Si         7.6627969743       14.0906643371        2.8839091002
  O        11.5500196235       13.0926367596        3.0605526239
 Si         5.9564850606        2.0190025692       11.3108266451
  O         4.7777204932        5.1727430766       10.7426756093
 Si         3.7740465135        4.1414310858       11.4686936369
  O         3.2966359622        4.3916384478       12.9952608567
 Si         4.7342430527        6.2091086867        9.5192360913
  O         2.4420326208        4.1460447154       10.5835015079
  O         4.5388274802        2.7452150324       11.2920721187
 Si         1.7584460037        3.0638710844        9.6413585493
  O         2.7363265473        2.3610131267        8.5612524127
  O         5.7243741435        0.6201070831       10.5869400725
  O         0.6972413590        3.7763127241        8.7010064242
 Si         4.9666990951        7.1456796025       13.8277656038
  O         6.3583646904        1.9582915267       12.8611069956
  O         5.1004893643        5.5760012018        8.0881031650
  O         0.9612544498        2.0384588727       10.5950956503
  O         5.2464415217        7.2279462681       12.2523139855
 Si         3.7832091758        4.5249027680       14.5413415634
  O         4.9293115316        5.6528972399       14.4269915845
  O         5.8194164356        7.3713098843        9.7793746937
  O         3.2784412784        6.9106114590        9.4837042756
  O         0.4742534115        1.0184626934       14.8217119786
  O         1.4740608571        0.2304999657        8.0767974033
  O         7.2581819642        2.6571380970       10.5893760803
 Si        -0.0152616199        4.9027736345        7.8369363110
  O         4.3123969632        3.0961648232       15.0576602167
  O         7.3699930504        3.0643878923       14.9766634141
  O         8.0551610659        0.6752137927       14.3497322785
 Si         7.7038728340        2.1265500360       13.7296905513
  O        14.1973013035        1.3335323497       12.3327444851
  O        12.3928719595        2.8188776768        8.2323082810
  O         8.8416097342        2.6659686712       12.7269766145
  O        13.5634134854        3.0509233559       10.4458285739
 Si         8.7980417104        2.7370261020       11.1000550740
 Si        14.4426995876        1.7172256618       10.7548433802
 Si        10.0848492618        5.3802174467        9.9799918571
  O        11.5512498173        4.7758913137        9.8103217501
 Si        12.8115407424        3.9464138050        9.3111398983
  O         9.2544927516        4.1600651436       10.5920774766
  O        10.1860591284        6.5837691729       11.0604488198
  O         9.7190794248        1.4968399928       10.5880249286
  O         9.4107821069        5.8083407482        8.5656221089
  O        13.7215165988        5.1710199793        8.7130604267
 Si        14.1895989499        0.8304154787       13.8974544657
  O        14.2192947598        0.5740202358        9.5652226387
  O        13.0413826085        1.4905324487       14.8483638810
  O         6.2791344016        7.7576581882       14.4883853626
 Si         0.3089828448        9.2310668875        7.8157603853
 Si         6.3001912138        7.8759965758       11.2198536964
  O         1.4973605715       13.8016494886       14.4359579773
  O         3.5912798861        7.9941738002       14.1224622513
 Si         6.5712662597       14.3486211464       10.3096277455
  O         1.4150160433        8.6260320009        8.8041052638
 Si         2.9283545154        8.4692958114        9.2877882643
  O         5.8127561356       13.7226151286        9.0185721180
  O         2.5096231290       10.2715916360       12.8665612313
 Si         2.9886281816       10.6867665035       11.3637295743
  O         4.4675912970       11.3697669561       11.4593133443
 Si         5.6755386945       10.6017167160       12.2404314318
  O         5.0121457594        9.9631144635       13.5504917415
  O         1.9452600569       11.6134162573       10.5861554560
  O         6.2782935560        9.4776194391       11.2811240902
  O         3.1446523839        9.2536174871       10.6581626107
  O         6.5862227142       13.5775175709       11.7308391619
 Si         3.4976224364        9.6173210229       13.9645954483
  O         6.6761202038       13.5517469704       14.4342599792
  O         6.9015935765       11.3980332611       12.8606254615
  O         3.9075962057        9.1046841925        8.1740643395
 Si         0.4846374649       12.3200099978       10.6559024690
 Si         7.2639182372       12.9402548942       13.0535085120
  O         0.3189298415       13.3417878629        9.4142097371
  O         0.3964780267       12.9353082030       12.1457903287
 Si         0.1713220657       13.1977055238       13.7153704843
 Si         6.8702998371       14.9765455809       15.1694225092
 Si         0.0329785767       14.6788954455        8.5273280546
  O         7.7824823994        7.3605276468       11.4650853273
 Si         9.4851446113        8.7450496240       14.7686204844
 Si        11.3270873389       11.3437386499       14.8890444948
  O        10.5753612488        9.9387550459       14.6021399555
  O         9.6471356534        9.1062270274       10.8862717775
  O        10.4920654746       14.5891886018        8.9729443237
 Si        10.5094981690       10.3697096822       10.4316398899
  O        10.1864105758       10.9854867899        8.9647733023
  O         8.1501762450       14.5827859986       10.0391189819
  O        12.0826910498        9.9567047392       10.4315161625
  O        14.0306999527       14.2808503891       13.8082459686
 Si        13.3135359646       10.4932058371        9.5392186274
  O        14.3660602057       11.2260554349       10.5032938156
  O        10.4334084973       14.1267024313       11.5289123529
 Si        10.2660995053       12.7833102901       12.4486389550
  O        12.6950872045       11.4504000279        8.3955745249
 Si        11.2056215641       11.3744051721        7.7550594007
  O        14.8325925709       11.9365379175       14.6168126000
  O         9.4856859439        8.0059927932       13.3174848578
 Si         9.7026019963       14.9533758715       10.3188580333
 Si         9.3105527208        7.7723555813       11.7256216249
  O        11.3710454301       12.3155107534       13.5639769015
  O         8.8564629543       13.0226569727       13.1772619191
  O        14.0433102629        9.3322736665        8.7042118097
  O        10.1890226045       11.5387656138       11.4565910676
