216
15.082 15.082 15.082
Si     10.127728252999995     10.652987887499989      4.758003519899983
O      10.084112425999974     11.535567541599999      3.383621406999979
O      11.696320816699998     10.526333232399997      5.106442815799970
O      13.537352957799996      8.941829408600002      5.882288006599976
Si     12.791678313999993      9.460127532600007      4.578839474199984
O       9.289967967199987     11.119879866700000      6.042565277699980
O      10.707016693200002      9.336665856100003      1.972502128500000
O       8.734217245799998     10.833425446200001      1.341881084099998
Si     10.239483153300004     10.885929256999994      1.882159246099998
O       9.609222153299992      9.174414197600015      4.325836870499981
O      13.843139797699999     10.201029417699999      3.615142403799992
O      12.017349357799997      8.228935874700005      3.854745265299991
O      11.346153253999994     11.619987020599991      0.947505091599992
O      13.999648133999996     11.533425116100002      1.406793913900009
Si     10.507165830699984      8.357227339699994      3.249897622399991
Si      7.982916990399998     14.903067017199993      6.581897120699986
Si     12.840870188500000     11.552490626700001      0.289876995299974
Si      7.181369566099993     11.207841434299999      1.446644376199975
O       6.933055602300006     11.081502494200008      7.140862760999996
Si      8.429957879299995     10.485876699199993      7.284472767999988
O       8.514007014200001      8.851023033400001      7.309166578899992
O       7.089974428199995     12.793135500699993      1.176284342299987
O       7.159938742799997     13.562849247199994      6.121326167999995
Si     13.993229081999992      9.578914104799994      7.279324522799992
O      14.009916763099989     12.875264653999993      3.624621188299996
O      13.604236622899993      0.392642581399997      3.693033682599990
Si     14.501889005300004     11.502990875300005      2.931480863199984
O       6.461761137999994     10.420355417299993      0.254398365999987
O       0.427137276399996     10.122015162499997      7.078876373099996
O       2.930725990199997     10.897981850000001      6.691254693699986
Si     14.737572217199988     14.309914904499994      3.800491656299995
O       6.301983060099999     10.901473794799996      2.759796770699991
Si      1.282618129700001     14.567956361499995      6.571215540499988
Si      6.148602374400008     12.294064671999994      6.395103893799988
O       1.037797029500006     11.435057127600004      3.070753123799981
Si      4.739790767800001     14.490927263400000      2.291090445699989
Si      1.857046450900002      9.727557117000005      6.410104367399993
O       5.542896468599997     11.638522289600003      5.063924072699994
O       4.813663675600010     13.100492811599993      3.065741406099973
Si      5.059974217199994     11.593070690399996      3.548165236199991
O       0.410526432300001     14.290887225399992      5.236386729399991
Si      2.123652223200009     10.274906643899987      3.400902034199987
O       3.641510263099993     10.823646372800003      3.382032615699991
O       1.897115503800009      9.158322989800013      2.271660370499983
O       1.758905798600000      9.574184584799999      4.813734964299988
O       4.981752467699984     14.220180921299990      0.704222116299986
O       0.735724803699995     14.428119222200003      2.595412467999992
O       3.300408172099985      0.072592448099995      2.587323295599985
O       4.818045197399998     12.717214920299998      7.235451845299993
O       2.150024419899992      0.063001759200000      0.331494994099976
O       2.296685940399995      8.316511661299989      7.081696166900000
Si      6.301218283799999     13.580527870300006      0.009783057499981
O       2.213940571999993     13.345764851099988      7.063531126899983
Si      1.852244014599999      0.284692414699992      1.901431541999977
O       9.270960088899995      0.364781557099995      5.734137744099999
O      11.091376085899999      2.178016733600009      6.582676345799987
O      11.097003585300000      1.243878028800008      4.091604073499991
O      12.125873432300001      1.241554477299996      1.590527232699993
Si     12.441443403300006      1.409803095699995      3.198705787499981
Si     10.153209624800001      1.692490470499999      5.345945578299986
O       9.691946431699996      7.034784065200010      2.908742395999989
Si      9.753286531799988      5.534951670299991      2.319679965199993
Si      8.051448607999996      3.759515592000000      4.122476836199978
O       8.591072728999999      4.549723590699999      2.820736682899989
O       9.212741355399997      2.976914220400006      4.952066750699982
O      12.198421115299995      3.754219194499999      0.955111487099982
O      12.902415239199991      2.971374143899999      3.368610866599980
O      11.087658578900005      4.918443531999996      2.974328907099978
O      13.537647784999997      5.421070842699992      2.515547252099979
Si     12.448011784900006      4.250710670699989      2.479477054099982
O       9.685274171999994      5.647049908299989      0.716349184499981
Si     12.238448860300000      2.267582356499987      0.322381048999980
O       7.562198111199990      1.635826776799994      1.104375804999990
O       7.093862666499997      2.577249432799998      3.595706171899996
O       7.237832448099999      4.938364585299999      4.891765798399981
O       7.010124783699994      1.086139466600009      6.599128601999991
O       6.931339206100001      7.373254496900008      6.057487866699991
O       4.890259469500001      4.926664899099986      0.494411891399994
Si      1.437430647200007      3.305065305900007      2.276171907599987
Si      3.077526538099990      1.983499231200012      6.748070615099993
O       0.643387902699999      6.741182980299998      2.194574927999983
Si     14.788589512899991      5.607945496199992      1.533071062199985
O       3.170389249699996      6.969421111799996      2.747145998599989
O       2.685078766499998      3.271697003599998      5.900604482499990
O       5.915393585799996      0.388851567600003      2.818496878700005
O       0.399809356199992      4.156627006299993      1.408206005799995
O       2.845804824799993      3.603238122400004      1.566231970199982
O       5.037506614599991      6.661759922599998      4.550792883899981
O       2.218538837400001      7.524593467800004      0.300834413599979
O       1.202155529499995      1.735857679199986      2.141170265499982
O       4.419387794800003      4.705395342599987      3.154947227299983
O       0.422765767999998      4.398519981099998      6.358332092899989
Si      1.649898497999996      4.303911879100011      5.272375095099989
Si      3.739564932099982      5.988051188099993      3.880267629299984
Si      6.193946680800013      6.046726782400009      5.470674627299983
O       2.541605654099989      5.635609885000006      4.938484192199977
O       5.444890977800005      5.325946226399992      6.706107016699988
Si      4.385924137400009      3.993372674199997      1.712155835499991
O       1.204143927600008      3.754858636899997      3.816527435699982
Si      6.491377950000000      1.815081075099994      2.323470033899988
O       4.667107876399994      1.955986444900000      6.599843046299993
O       5.272129821899997      2.667699040099999      1.728937881799983
Si      1.976948643499992      7.607488067699988      1.889896432599987
O       2.295066231999986      0.691996932699997      6.205569507099985
O      14.328416931400000      5.957513183399994      0.028976029899986
Si      8.558254105000007     10.077058500399998     11.951183350499985
Si      9.733235067099978     11.893598527900000      9.823548254699984
Si     12.805724316500013     11.913030356199997      8.940551007299995
O      11.258064657000000     12.012113151600003      9.344270004699997
Si      8.472414321500002     14.724420853300003      9.686732883899976
O       9.134606064900000     13.347584693499989     10.141611305799980
O      13.220958809199992     14.602639026000007     12.565364646499974
Si     13.927422002899998     14.841672653800003      8.559116140999999
O       9.523816933299996     11.133495650300002     11.226543336399985
O       7.497229351899983      9.390470660299997     10.934805187099983
O       9.588619759600002      8.942255357300001     12.490676922499976
O       8.984591321199995     11.067187591799996      8.667069163499994
O      13.365558253100005     13.334703575399994      8.416860737499988
O       7.577252975899992     10.746363171300015     13.037076144399983
O       8.425606083899996     14.600311254699996      8.090148155599987
O      13.536796264700008     11.456869324100005     10.293943795499985
O      13.142252477899994     12.793138091900003     14.380609357499985
Si     13.948714598199997      9.377254043100011     13.504781738799982
O      12.990653359599998     10.236962751500005     14.456828943999996
O      13.074776332000001     10.806452177500002      7.788881204499982
O      13.861861276800001      8.323720364199994      8.261302337999991
O      12.992438723600012      8.304701458399997     12.811050300099994
Si     14.119221132799995     13.536577560699998     13.342368839599983
O       7.010966978699994     14.906100304899995     10.376507010399980
O      14.174699950600001      0.138213018599993     10.120330570399982
O       7.320601747799989     14.676721402199991     14.530661689099995
O      14.637319429400003     10.116239583999992     12.259322126099988
O      14.861770036800003     12.628719180199996     12.249943817399981
Si     14.790762503699995     11.362410975699998     11.278944804099995
Si      6.203307177099991     10.960727259300002     13.850716370799988
O       5.911925358100001     12.554499614299994     13.912348639999992
O       4.869937856300004     10.198169030200001     13.427061288099990
O       1.010713653700002     11.218491863800001     10.365915822199991
Si      2.531860487599991     10.802651816499997     10.074510045699979
O       3.317987420799998     10.746980918399998     11.472744504099984
Si      3.737111399599994      9.578092841699997     12.488376179299983
O       2.612347222499992      9.327549088600007      9.427316470199980
O       3.162586025299997     11.916604274899994      9.099786608099993
O       0.248489282599989     14.276510539000006     14.070710652099979
O       2.443395542799985      8.930129284900014     13.209283876799972
O       0.095177103300003      8.780650542399993     14.374901325299991
O       4.426671153299989      8.372660141499999     11.703187700299983
O       0.254973833799994     14.927474180699996      7.772004701899988
Si      1.454207004100005      0.237846862599987     13.978849089599992
O       2.383296225500005      0.067051276899996     12.656186961299987
Si      1.449588525099996      7.956678096700010     14.030999999799988
Si      2.340349533299999      7.932727437699997      8.661863412599979
Si      3.293607658699993     12.240313636400003      7.519426143599979
O       4.326318251800001      0.381506445099999     10.916956410999980
O       6.840777165499999      7.988088800399991      8.935898130899989
Si      7.406638686000005      7.860207618799993     10.440216453399991
O       9.364111827799993      0.927202353899994     10.054955963199991
Si     13.330042467300000      0.625419420799996     11.410916060399988
O      11.814869065799993      0.778948581299997     10.927296314999989
Si      8.913516113000002      5.440606709399992     14.395119767499983
Si      9.768568843499986      7.389638129199994     12.041554644599998
O      11.245987202399997      6.900953665100001     11.629096974799982
Si     12.829826279899999      7.039217721800006     11.845274446499978
Si     10.655277969600000      1.780222636000003     10.469926947399983
O      10.247177634099994      2.652562801399995     11.777268232099985
O       9.218571981199997      6.583198232400008     13.318172505699991
O       8.884923184900000      7.215937432899989     10.680917905600001
Si      9.883234512700000      2.606846240999988     13.354822708699988
O      11.263670760499993      2.579263351099995      9.183508889799981
O       9.441787270300003      4.079218123200007     13.754654697799987
O       8.652618506099998      1.626961830099994     13.678795800499994
O      13.627694892700001      7.126110817300016     10.454363389399996
O      14.008197741499998      1.962669516599996     12.030381629999988
Si     12.126068917600005      2.245383727699995      7.821700684799988
O      13.463169667399999      5.800865809599996     12.649786782199984
O       7.654578808599988      5.902536745200011      7.942163646099996
O      11.091825839099997      2.104487961499999     14.296260697599992
O      12.834709891999994      0.785980308799990      7.945203958599978
O       7.326838004699996      5.406513369099986     14.695698821699983
Si      7.437659141000000      1.188171762599989     14.624545248599988
O      13.619319452200006      2.113080031599994     14.616121692199995
O      13.294966849900009      3.351702818399982      7.549595160099996
O      14.245039599599989      5.641832751799983      8.333185281399988
Si     14.443647922099998      7.068349609999998      9.068309521100000
Si      7.541000000000000      7.541000000000000      7.541000000000000
O       6.154098144999997      2.118247040200009     11.406011509399976
Si      6.009836939199994      1.959892010700000      7.471666318399992
O       5.607304640200004      1.330859900699996      8.885143267599984
Si      5.448352892699991      2.587596219500010     12.795738148999984
O       5.199807516900000      6.598404627999992     13.581801352199991
O       5.362431673000005      5.014370901899992      9.260923687699989
Si     14.643484422599998      2.499376119799982     13.436886239599994
O       0.905237825799999      1.731491926700000     13.821390149699992
Si     14.756205706099994      5.595902479899989     13.590765357299988
O       3.872833594499990      2.263010687699991     12.647986110999978
O       6.766021473499993      3.363335240299985      7.775704808699989
Si      5.789051044900005      0.885878362099989     10.407948572699976
Si      3.891671457499998      5.494348219999983      9.750598135499994
O       5.677407497599986      4.140484861799988     13.113710093299989
O       3.473347853499994      6.810230718099998      8.893906616199978
O       2.069295422000009      1.974439832599995     10.753507594799997
O       0.496825910099998      3.370009984999986      8.878134109799994
O       0.957718641899989      7.295229251700014      9.204500791299989
Si      5.779255982000004      5.256882951399993     14.275914557300004
Si      1.973719542000002      2.950721253600004      9.442716533899990
Si      3.124793435999987      1.162299286199993     11.711799441899988
O       0.012549052699993      4.042848119499989     13.363534619199983
Si      6.345863523899991      4.903605654599989      7.984626201899985
Si     14.674575568200002      4.185496827999994      7.769900130499991
O       6.465269216999998      6.901318902399991     11.314225219999994
O       2.789555697699995      4.325803435099992      9.662571623199991
O       4.029083123499985      5.868575692999995     11.310507421899986
O       0.940581367199991      6.592315806999991     13.264666857599995
Si      5.020841919500009      6.920016770700012     12.009043674899983
O       6.063233795200009      1.794485035800013     14.051982290200003
O       2.699861425599996      2.106703447200009      8.297560590400003
