216
14.938 14.938 14.938
 Si         2.2205287837        0.6361898930        3.8683969324
  O         4.5087691878        3.9027878224        3.9810436699
 Si         5.7593671865        3.5540624097        3.0194240777
  O         5.5649722839        2.0701145196        2.4028698177
 Si         5.4920942462        6.2521982948        1.7112351988
 Si         3.1871989422        3.4415495947        4.7652571268
  O         5.8956316512        4.6699284013        1.8284158238
  O         3.0705708769        1.8287583176        4.5675751811
  O         1.5677884372        5.4691717482        1.7452845176
  O         1.9814004124        4.2413098543        4.0752779016
 Si         0.9050555117        4.7105393901        2.9883735306
 Si         0.8548364216        2.0929052961        1.5266638220
  O         1.7507441213        1.0736102539        2.3934616065
 Si         6.4118568491        6.6443565534        6.4761131459
  O         3.1530715305        3.9115638537        6.3239617319
 Si         5.4044676525        1.2296608052        1.0189841771
  O         1.9096716764        6.2065774765        6.3751648121
  O         3.9116716692        6.4044355006        1.5887278606
 Si         2.7305421464        5.8201228790        0.7166257093
  O         0.3179192289        3.3306529806        2.4092495497
  O         7.0522862366        3.5716455113        3.9807384723
  O         6.5584362323        5.0667025908        6.1437411248
  O         0.8307059600        0.4964844538        4.6375964521
  O         6.8822982489        0.8270421563        0.4996936352
  O         6.9654342254        2.4983945161        6.3898114737
 Si         2.0091196838        4.7689493237        7.1384080489
  O         1.8455113088        2.5023201817        0.3332223434
  O         0.7392870810        3.7335043093        7.1416906177
  O         5.8083468885        6.8838377741        3.1349898666
  O         5.3061566919        7.3784932172        5.5693884833
  O         6.1255654148        7.1367472732        0.5107280785
  O         4.5593138943        2.2311768170        0.0849018623
  O        15.0294196137        1.1114643017        6.9791175733
 Si         7.3756130230        3.8048122052        5.5453534156
  O        14.7791106990        5.7164652608        3.6477239246
  O        14.4444264820        1.4941026021        0.9079304699
  O        10.1203135374        3.6377454862        0.4940999539
  O         9.4461246369        1.1635689375        0.5852019981
  O        11.1339880970        3.8996768827        7.0662670448
 Si        11.1872923797        6.5075244481        4.5628653785
  O        10.8589052150        2.2251432327        5.0402360963
  O        11.1215202973        4.8861108152        4.5813002283
  O        11.0423687924        2.0821031826        2.5082127904
 Si        10.5399193779        3.7305234052        5.5704359683
  O         8.9596939476        3.9935922658        5.6522421971
 Si        11.0668811823        1.1563050738        3.8350602910
 Si        10.6185074071        2.1645060729        0.9609873350
  O        12.7158978061        6.9814876089        4.5612886954
 Si        14.2361140688        7.1725061139        4.1073041550
  O         7.8721216429        7.2934867785        6.2256251293
  O        10.4540644008        7.0540411970        5.8949932768
  O        10.5307968738        7.1477218953        3.2271171555
  O        12.3688015641        0.2461758505        4.1515130653
 Si         8.3042805510        0.0672894209        0.4660772666
  O        11.8968374672        1.6631393731        0.1527635461
  O        12.1134710203        7.3840845078        1.1525168351
 Si         9.2989900856        7.3772352601        6.9642915060
  O        14.5981055767        6.9665990332        0.1715381797
 Si        13.0280350911        6.8014365392       -0.0565744325
  O         0.0870746010        7.7206838490        5.4013985681
  O         4.5762086257       14.7670419754        1.0859527373
 Si         0.3681529002       14.8162097297        6.0281040342
 Si         1.4211368908        7.7616930934        6.3153391997
  O         2.9858307603       14.1354144936        3.9081828544
 Si         4.9641406508       13.2561441336        1.5605676088
  O         5.9645912832       13.5265841216        2.7988373032
 Si         5.4228521498        8.0715882879        4.1307814829
  O         6.7259044084        8.9616427071        4.0611589464
  O         4.1293867866        8.9705889468        3.8104175503
  O         3.6616459363       12.4507112620        2.0666951529
  O         2.9086287443       11.3596316675        4.3301592032
 Si         2.6706563105       12.6374125391        3.3290323854
 Si         2.7608279919        9.7192162530        4.2499519419
  O         2.3218750840        8.9517789457        5.6306314488
  O         1.1538975493       12.6932836592        2.8268003912
  O         1.6669877195        9.5330302655        3.0840514777
  O         5.9827424289       13.8565101676        5.4079587199
 Si         6.6096853672       13.0515305577        4.1816216555
  O         6.3834936361       11.4674431499        4.3078550558
  O         0.8294410362        9.1223474472        0.6644868666
 Si         0.3346574999        9.4119347028        2.1948248669
 Si         5.6569756251       13.9987664516        6.9763357612
  O         1.4996720232       13.8542052552        6.6393617315
  O         5.6505752375       12.3552375417        0.4067603172
  O         4.0680740770       14.1977199735        7.0581688715
 Si         7.4727954634       10.2915921204        4.4268187702
  O        12.4639502588       10.5332927142        6.8074339072
  O        14.0226060959       13.9296983283        5.7293383626
  O         9.5380369586        7.9549235515        0.8938236284
  O        10.0406584777       11.4381942902        6.9048114159
  O         8.5438963616       13.9345539558        1.6505148137
  O         9.9642960996       14.9452948814        3.5747637987
  O         9.4620610732        8.8855024526        7.5488822786
  O        10.9538460146        9.6238930130        2.2401701968
 Si         8.8595755766       10.3603326319        7.2457381840
 Si         9.3006535494       13.5923453356        3.0268549393
  O        11.0285594612       10.4650676626        4.6445521167
  O        14.4423586139       10.8028987582        2.1530670779
  O        14.6126574848       13.1236538056        0.7354640549
  O        14.3756999833        8.2421508826        2.8882981528
  O         7.9635817674       10.2832418624        5.9355398352
 Si        10.8048056748        8.0312719540        1.8953050767
  O        10.2927294954       12.2983344680        2.8234448341
 Si        10.2717904944       10.7075174908        3.2371401819
 Si        11.3628407709       11.3451870120        5.9559645045
  O        13.5267219376       13.0262236805        3.2361797467
  O         8.2053708938       13.2629393416        4.1533969175
  O         8.7070764099       10.3778771531        3.4018139673
 Si        12.9212192207       13.7160039414        4.5820855057
 Si        14.6343025738       12.4190306443        2.2088988373
  O        11.8516814089       12.7803666545        5.3820907095
 Si         5.8007472754        3.5665513894       10.1154285556
  O         5.7349220367        5.0512597622        9.5444735505
 Si         1.4004695339        0.8882448141        9.9150312208
  O         4.4686700067        3.1511026777       10.8667166349
  O         1.6518501490        6.4681318524       11.0375144555
  O         1.9817662132        3.9815791188       11.0336563620
 Si         3.0190051151        2.8457260584       11.4517373793
 Si         1.4177962035        5.1630847029       10.1214581388
  O         2.4887163042        1.4241904412       10.9501939692
  O         3.0723853751        2.7388272971       13.0253337200
  O         6.0594080176        2.5716058928        8.8854730678
 Si         6.0456121460        6.6147623837        9.5062824086
  O         2.2391602152        5.1395941840        8.7108838709
  O         6.9754210527        3.5596348677       11.2030642376
 Si         3.2109200899        2.9843010876       14.5728156411
  O         0.5042855099        2.0868138215        9.2933736418
  O         5.8945710278        6.9762544664        7.9576197960
 Si         6.9811711242        1.7892910662        7.8300675609
  O         2.2447557624        0.2541581294        8.7110746158
  O         6.3919788576        0.3213222241        7.6331551309
  O         2.2218538589        6.9824305775       14.6783067246
  O         4.9656251408        7.3024023069       10.4560303324
  O         3.3185350175        4.5654233458       14.8531631327
 Si        14.9005608664        2.4689750915        7.8089122336
  O         7.5347953541        7.0588111846        9.9693853329
  O        14.7716784114        4.9897030950        9.7909567820
  O        12.8657124242        5.2190185824       14.5996113484
  O         9.5469167501        5.9030698492       14.2733784520
  O         9.2985814524        6.3106752500        8.2014152011
 Si         9.8877535516        4.3615050874       13.9985013623
 Si        11.9108376555        3.2489061141        8.3312774096
  O        11.0392806545        1.9995519023        8.8811814119
 Si        12.7953858918        4.2098535675       13.3215797135
  O        13.3635376538        4.8114749343       11.9466265287
 Si         8.5333935364        3.8213927359       11.4416629829
  O         9.0545475596        5.1603011219       10.6995149783
 Si         9.0379930798        6.4933983413        9.8002898602
  O        12.1993229706        4.3038404814        9.5368671642
 Si        13.2695690432        5.1837625029       10.3752244080
  O         8.7108996599        3.8195344131       13.0400401578
  O         9.3829328017        2.6581803092       10.7790443896
 Si         9.6123764551        1.6593597479        9.5560978794
  O        12.7835477856        6.7057925439       10.2195736622
  O        11.2054317682        4.0589960329       13.1107261768
  O        13.6033622082        2.8231804798       13.6227865652
  O         8.4885232884        1.7512776450        8.3971130889
  O        13.3361609065        2.7559495278        7.8115424108
 Si        13.4118515622        1.5365055487       14.6122598310
  O         9.5423492479        0.2525345359       10.2937726404
  O        10.2151189583        7.4688529667       10.2857125141
  O        13.6089138512        0.0855008795       13.9439172489
 Si         9.2391216432        7.4867809368       14.3111405339
  O         0.4999026330       14.7650238712       10.7104780784
  O         6.0528049420        9.7936997963       14.5296200702
  O         3.0069907632        8.5484279453       11.7079057318
 Si         0.8763516239        7.8647555283       14.5779055686
 Si         2.6515757024       13.9787204383        7.7549225287
 Si         1.4984982908        7.9769364053       11.5735295384
  O         5.2295939556        7.8073435325       13.0358306558
  O         0.7576428257        8.2149226329       13.0021677928
 Si         4.6074785844        8.3292476039       11.6295358393
  O         2.7348220251       12.6694343015        8.6414381017
  O         3.6304931692       11.6939693255       10.8571735522
  O         5.3114298333        9.7100429721       11.2123526610
 Si         5.1262459703       11.3019234757       11.2835185909
  O         1.0795409713       12.2008574445       10.7017841543
 Si         2.3697308590       11.7106102594        9.8604700571
  O         0.5876014535        8.7114340683       10.4523613473
  O         2.0710705878       10.2989028834        9.1366901734
 Si         0.8425908847        9.2752031052        8.9548299424
  O         5.3111009510       11.7643621781       12.8212118038
  O         6.2246853434       11.9402817248       10.2918683320
 Si         6.1606379709       11.3821509940       14.1501530011
 Si         6.2674760801        8.1972989212       14.2227130183
 Si         7.1167807467       12.1413075893        8.9635303365
  O         1.2392140872        8.1382557659        7.8790450666
  O         6.1468812964       12.6952146524        7.7966736613
 Si         0.0521165536       13.3189888113       11.2591128611
 Si        11.7575561345        7.9381863072       10.1619950516
  O        10.8716108918       13.1146926999        9.9589187738
  O        13.5233342430       13.1170596510       10.6234591127
 Si        12.1569172269       12.2962911322       10.4375124678
  O         7.6998851696       11.6977096666       13.7809732274
  O        12.1166819972        8.7163590739        8.7932642540
  O        11.8712562437       10.1041836153       13.8469428778
 Si        14.0162231793       13.4750917409       14.1942881117
 Si        12.8459872527       10.0775455908        8.3062481944
 Si         8.8017886490       12.7857829189       13.3552190586
 Si        11.6351496105       11.6437748106       13.4485352512
  O        10.2073921776        8.2157711992       13.2704743515
  O         8.4562123816       14.2016305140       14.0249040616
  O        14.9414289820       13.1809293995       12.8807326379
  O        12.7019167429        7.6214552039       13.5391669738
  O        11.9637723803        8.9017041772       11.4380791143
  O         8.8906321037       13.0326828819       11.7698225976
 Si        11.6899097341        8.7389909879       13.0091187892
  O        11.7836539178       11.6957472100       11.8648586974
  O        10.1997163317       12.1971670886       13.8728686337
  O         8.2866697396       13.1955661782        9.2773956313
 Si         9.3977995576       13.6106191352       10.3518279068
  O        14.4448766263        9.9581618422        8.3862084896
  O        12.3657752794       11.2078796936        9.3081764681
  O        12.7096472410       12.5495663109       14.1830427810
  O         7.8890152541       10.7996850458        8.4645633181
  O         7.7971298873        7.9545705201       13.7817431079
