216
14.996 14.996 14.996
  O         2.4138960693        4.9949538912        2.9706713883
 Si         2.1216307591        3.5307169112        3.5847751645
  O         4.8537866769        4.7596521506        2.1150661104
 Si         3.5890847302        5.7565614529        2.1529278006
 Si         6.2121964309        4.2752529293        2.8321002591
  O         5.8575764514        3.9160808214        4.3762581370
 Si         4.8234040630        2.9176063074        5.1246486067
  O         3.4347196166        2.8957499389        4.2937757643
  O         6.8040471952        2.8895337444        2.2559035374
  O         3.5868290920        5.7633590843        6.3178610268
  O         5.3902692652        1.4033296765        5.2307401351
  O         0.9335704189        3.4298611222        4.6966143220
 Si         0.9703296923        1.5697916631        1.4423808047
  O         3.3711952238        6.1839964057        0.5970990499
  O         0.5519224626        0.9346815433        4.2961735296
  O         4.6801348831        3.4388862032        6.6436913414
 Si         6.9201296019        0.9208883385        5.5237817760
  O         1.6375725895        2.7499034295        2.2763961610
  O         3.7394739196        7.0992702762        3.0404261247
  O         1.7051952374        0.2449559191        2.0117628974
  O         7.2555863701        0.3936748078        1.7082177872
  O         7.2585243512        5.4760409761        2.5800363044
 Si         3.8571278921        4.5885971437        7.4064594175
 Si         4.1256494150        7.2936689356        6.2499339527
  O         7.7326754707        1.1674131743        4.1507057761
 Si         7.7562998622        1.6310936607        2.6043158839
  O         7.4950931631        1.9346502838        6.6304784021
 Si        14.7379337779        2.3348688069        4.8917323132
  O        11.8167937187        1.9443798225        1.6242035570
  O        10.2391334259        6.3350146706        6.3250373599
 Si         8.3352249398        6.3309598558        3.4296333849
  O        14.0539522069        1.7947268286        6.2485113628
  O        12.7144120379        5.6377328508        6.0924065347
  O        13.4301365217        3.3588897589        4.5258293243
  O        12.0256398045        5.3949389765        3.5845791210
  O         9.7488289814        6.5689486712        2.6586175240
  O         8.6644407619        5.3021640790        4.6171887889
 Si        11.0519219885        5.6426215366        2.3256460235
 Si         9.6214789739        4.9296431504        5.8366288342
  O        10.4737394373        4.2158031376        1.8634438203
  O        14.3723490872        1.4869308112        1.7255078395
  O         9.2881014500        1.9495455252        2.2703649911
 Si        10.4053147689        2.6899138949        1.4054218797
 Si        12.9623094732        0.8844273479        1.2337588765
  O        10.8679492493        3.9722688941        5.3938288160
 Si        12.3501384659        4.5195512896        4.9075447454
  O        11.9463917580        6.3269013574        1.1791865616
  O         8.6634399452        4.3009393933        6.9567416826
 Si        11.7248940474        6.9586539558        6.3057940944
 Si        13.0345048985        1.0392556527        7.2440872993
  O         5.5457981515        7.4249848835        5.4721801136
 Si         1.4704664221       14.7198334154        3.5316487777
  O         7.0212412866       14.3789663760        6.0279822458
 Si         5.7368633513       11.5941410905        0.5521944466
  O         3.0548751663        8.1313626234        5.3721825703
 Si         2.8423970386        8.2466336675        3.7602736322
 Si         6.3002842680       12.9828835257        6.4701863512
  O         5.0137855423       12.8946475953        5.4706720077
  O         1.2629261029        8.2768173635        3.4479231666
  O         5.6338699894       10.5574660749        1.7829235010
  O         4.1502697751       11.9417079683        3.3514162930
 Si         4.4116599613       13.3698421192        4.0382288990
  O         2.9819149883       14.2239411697        4.0680068300
  O         3.4253167726        9.5953482628        3.1217637759
 Si         4.7607841681       10.4624810494        3.1324879265
 Si         6.5863942528        8.5144756330        4.8689175725
  O         5.7890590573        9.7427518432        4.1580630712
  O         5.7106966820       14.0479992309        3.2868806603
  O         6.0899718968       13.1158359573        0.9378796827
 Si         6.8502566714       13.8945310961        2.1092783108
  O         0.5395404039       13.4207900199        3.3582342069
  O         0.4843912689       10.7754414707        2.8694795705
  O         7.4148081898       11.7781040173        6.6350926559
  O         7.3473240788        9.2056530590        6.1036393785
  O         0.9374329509       11.3225649885        7.2650470432
  O        11.8768334107       15.1382580781        6.5586070714
 Si        15.1069998554        9.1942599601        2.7783434315
 Si         8.2495300268       10.2029731822       -0.0348509144
 Si        10.6647975393       11.4899708954        4.8919550694
  O        10.8610167723       12.6472208728        1.1686775147
  O         8.2822294220       13.1160285038        2.3423225657
  O        13.2788831762       12.1179610870        2.5710368661
  O        14.0600904659        9.6024410758        6.0925360513
 Si         8.3253096949       10.3983506009        6.5415409706
 Si        14.5352997154       11.1223636118        6.4542470035
  O        14.9088998116        8.6008837923        1.3041188432
 Si        11.0320491305       13.8272803831        7.0169345661
  O        11.9495638686       10.5389120655        4.9252546842
  O        14.4565480030       11.8774406205        5.0290056197
  O         8.9115827916       10.7873312584        1.3333850474
 Si        14.6700734566       12.0684301529        3.4338729826
  O        13.6893111289        9.0670961924        3.5220848471
  O         7.6483659113        7.7279736761        3.9101548755
  O        10.9329359156       12.8083806942        5.7839830093
  O        12.6529479566       14.4421921932        1.8719076330
 Si        12.4800377658       12.9086806258        1.3704801597
 Si         9.5522139015       12.1256039046        2.0245227034
  O        10.3048410562       11.8728793278        3.4025605421
 Si        12.9496510378        9.2769833083        4.9249956463
  O         9.3770967544       10.6963326673        5.3844933337
  O        12.1078017626        7.9236144290        5.0799294034
  O        13.1930272444       12.5799189714       -0.0782146652
  O        13.5303687894       11.7992307583        7.4886100530
  O         3.1227980747        1.9707287849        9.6970268723
 Si         1.9367663062        2.7472641047        8.9485996248
 Si         4.1436068328        0.7550999198        9.7740159461
  O         1.0925890628        3.5147791832       10.0901340915
  O         1.7942372487        3.1201066822       12.6403681735
 Si         1.0657867240        4.1290463036       11.5906897482
  O         1.7152553718        5.6042826250       11.6358201202
 Si         1.7835199671        1.7012946465       13.4164182896
  O         4.6906855757        5.3096847551        8.6028617777
  O         5.5450952748        1.3415630678        9.2905734942
  O         3.8191880981        6.4067079235       12.9087668156
 Si         2.7990418832        6.7926818109       11.6962424302
  O         1.1697920390        1.5560116271        8.1270228194
  O         3.2620236383        1.0787005332       13.5213994049
 Si         7.0356610139        1.6360566759        9.7703593542
  O         0.8497613281        0.6305079280       12.6678252837
 Si         4.6141641546        6.8491693560        9.1452054079
  O         2.5025110157        3.8998166631        7.9630526051
 Si         7.1232325717        0.6257419599       12.5871556165
 Si         4.0703368973        7.0407889644       14.3898688467
  O         3.4378753758        6.9381779750       10.2320281476
  O         7.0278914722        1.7176702415       11.3852063686
 Si         0.4174477751        0.2092560551        8.6837447041
  O         5.6821507320        7.1019577629       14.6058698377
  O         5.7026318212        0.3069854327       13.2898805173
  O         1.1848258809        1.8746666389       14.8918166992
  O         4.1457789871        0.1599716681       11.2515849513
  O         0.1641938568        0.6294307507       10.2124724809
  O         5.9420688342        7.3464331051        9.9214203711
  O         7.6501301362        2.9545513229        9.0482057826
  O        14.5299275619        4.2939905689       12.0277113370
  O         8.2756579782        1.1690140823       13.5815804271
 Si         9.7124818189        1.8938657219       13.4728456476
  O         9.6041878738        5.4094238786       11.6356874555
 Si        10.8589034300        2.1181828252        8.9666055584
  O        10.6282521444        3.4208779666        9.9032350707
 Si        10.4758338054        4.0753997027       11.3754303379
  O        11.9604587275        4.5253390085       11.7971919329
 Si         9.6346777627        6.5154778160       12.8308861389
  O         9.7620908390        2.9547270570       12.2744026985
 Si        13.1491485271        4.1504186720       12.8040934128
 Si        12.5193255336        1.0942439709       13.2657940620
  O        10.9266892989        0.8556584582       13.1947179620
  O        12.8869913975        2.6500511430       13.2765078985
  O        10.4680098291        0.7075086581        9.6894229344
  O        13.1191684430        5.0629691884       14.1265443126
  O         8.1940088472        6.4883990158       13.5930414212
  O        10.8960215167        6.3418066233       13.8239594318
 Si        12.3152653300        6.3724771611       14.6140656129
  O        12.3483156524        2.0376861455        8.3366859677
  O         9.8341909997        2.1956269330        7.7345863797
  O         7.8931703318        0.3905787631        9.2225968876
  O        13.2706343816        0.3903439370       12.0374992741
  O        13.9899388345       -0.0030891680        7.9874585895
  O        13.0525290238        0.5463588246       14.6640659343
 Si         8.3756898934        2.8579011189        7.5878305631
  O        10.0001150388        2.6603007484       14.8469493750
 Si         4.1802720857       14.9431548059       12.8370629942
 Si         7.0449724851        7.6129949633       13.8826907419
  O         4.2798261764       11.6333769152       14.8938867322
  O         4.2961472173        7.7369406448        7.8102298259
  O         3.7491502176       14.5038844357        8.8437165453
  O         1.0911330944       13.7482088355        8.5182153221
  O         6.5553719235        8.2028632812       12.4408696192
  O         2.2572251920        8.2822581766       12.0296623486
  O         3.0088027737       12.0263935489        8.5903531786
  O         4.9274880994       12.4808946556       10.2415325994
 Si         2.2200548065        9.1850283492       13.3811652342
  O         3.5951306698       13.4398577122       13.1268159281
  O         2.5789386654       10.7733857994       13.1286929024
 Si         3.8095273043       11.8360317137       13.3731925030
  O         5.0769595879       11.3967845022       12.5036355268
 Si         5.7749292466       11.3984398614       11.0689821322
  O         5.6938716106        9.8733159632       10.5378304546
 Si         1.3932996427       12.1488884685        8.6051441440
 Si         6.5420615480        8.5322496895       10.8502446478
  O         0.6915624854       11.5625502458        9.9889532610
 Si         4.2869858758       12.9769525858        8.8537954641
  O         3.3498349860        8.5145675194       14.3652369980
  O         0.7049680757        8.9825900869       13.9060473565
  O         7.3370680743       11.7934248555       11.1592796601
  O         5.5546685214       12.9598905080        7.8850582549
  O         6.9476751505       11.0937254311       14.6080417163
 Si        14.7882075559       15.0279103861       11.6399606311
  O        14.9263010686       13.4530392748       11.5501740014
 Si        14.3685223845        8.7757509040       14.7986524262
  O        13.4498047387       10.0815566710       14.6804773820
  O        11.6299945033       13.1311990798        8.3538448930
 Si         9.5863054022        8.9040682226       10.9200531296
  O        11.6297703465        8.0540009619        7.5036205337
  O         9.5933476597       14.2929214126        7.5864592471
  O        14.1524874631       11.3243548094       12.4887862106
  O        13.3631823462        7.5790941045       14.3683759344
  O        11.6851509509       11.3384647546       13.1917770655
  O         7.7326047958        8.6709206609       14.9144464778
  O        13.1274810473       11.9476766475       10.1485414815
 Si        10.7217350877        9.1672208826        8.2791651885
  O        10.4640581594        8.4319893732        9.6786134645
 Si        14.4838739840       12.0080061293       11.0351811753
 Si        13.1611470425       11.3816049293       13.7954847414
  O         9.8368263098        7.9651637571       12.1834116683
  O         9.2891525284        9.7685840026        7.7232483286
  O         8.0578093877        8.8276944929       10.4552506809
  O        10.0709252494       10.3860269940       11.3285546443
  O         7.5748093811       14.2340450315       11.9433966922
 Si        12.4725757328       11.8088019762        8.6784525912
  O         9.3705204440       10.3090137800       13.8296146829
 Si        10.1789825180       11.1558645149       12.7431544498
 Si         8.3983138781       12.9815533358       11.4164127636
  O         9.2155013646       13.3565647611       10.0751049490
  O        11.6339017050       10.4646174484        8.5197142518
  O         9.4513284730       12.5758341183       12.5620098264
 Si         9.3247457224       14.6650150352        9.1413875792
