216
14.973 14.973 14.973
 Si         1.4981067261        3.3032584619        5.1992127634
 Si         5.0839354176        5.8804127290        5.9542033677
 Si         4.5981406425        3.0640914956        4.8968649041
  O         5.0701055107        3.5057518430        3.3596808729
  O         5.1424528378        4.2701907913        5.8486104421
  O         0.8623934262        2.5009633604        3.9730296721
  O         5.1457294243        1.5797569120        5.2229852513
  O         3.0363342838        2.8196846351        5.2240700283
  O         1.7101050376        1.5531867623        1.6285172883
  O         1.6388667379        4.9078419727        5.1402108398
  O         3.5976612181        6.2487729602        6.4557554234
 Si         2.0326405537        6.1179104179        6.1320446124
 Si         6.5895744667        3.9599069581        2.9018325930
  O         1.2346858619        6.2516470183        2.7919540995
  O         5.3835201660        6.5503596987        4.5136754396
 Si         0.5679805745        2.4120731149        2.4044999041
 Si         6.1226995243        0.3749089931        4.8038199134
  O         6.4835261639        0.7018842461        1.3425985716
  O         6.7902801813        5.3781819373        2.1914785365
  O         6.1476231918        6.5547463551        6.9506290200
  O         0.5467667145        3.9089377148        1.8643738942
  O         1.5592356663        7.3914151876        5.2361904941
 Si         0.5750632437        5.4701036141        1.5505571692
 Si         0.7266373144        7.3542979668        3.8477873350
  O         1.5487220379        5.6991533547        0.3119197344
  O         0.4574413219        3.0638069545        6.4072392886
  O         7.4346918726        1.1813566929        4.2825731529
  O         7.4097332435        2.9610617914        1.9425951072
 Si         2.5769619752        1.6948111378        0.2478773271
  O         4.1382972447        1.2648493619        0.3013654315
 Si         5.2640573179        0.1234249279        0.4883515015
  O         7.4056708019        3.8942113516        4.2848515960
 Si         7.5267893869        6.1671169407        0.9861680638
 Si         7.6142214866        1.7589011302        0.9152613908
 Si        10.9458254441        2.9741802999        4.9581127546
  O         8.2859186495        2.7297792199        6.3170799946
  O         9.6592594315        2.5660722024        4.0677655165
  O        14.0247755259        1.8697685564        2.2531287548
  O        12.4086603266        3.9613900683        1.7789737390
  O        12.2486430621        2.6569504197        4.0683663766
 Si        12.5514400794        2.5117754350        2.4696325815
 Si         8.1795044749        2.5565730320        4.7226060898
  O        11.4667489628        1.5592529626        1.7993594761
 Si        11.7307466979        5.4983129409        6.2581229179
  O        10.7723454607        4.5316124386        5.3801219964
 Si        12.4981671128        5.5397905060        1.4760460284
  O        12.0138996208        6.3110619898        2.8044924399
  O         9.0725749896        1.0804414352        0.9389456204
 Si        10.3734622259        0.4033843354        1.6444174926
  O        14.0423680801        5.9339170628        1.1828888918
  O        10.8344325078        2.1764453680        6.3747402651
  O        12.0170834790        6.8027688226        5.3643819549
  O        13.0222307010        4.5047315213        6.5581977690
 Si        12.6508993792        7.2212690430        3.9609010070
  O        11.5685595968        6.0054315423        0.2517044835
  O        14.2027020207        6.9381082812        4.2037830943
 Si        14.0755706079        3.4226212994        7.2376219140
  O         8.9597963606        5.6947295279        0.3932897729
  O         8.5726554075        7.3316506711        7.2430586238
  O        11.0030346256        6.2253923909        7.5101130185
 Si         9.5167707063        2.3956061930        7.3076301605
  O         4.6898448701        7.7290732577        2.3307423480
  O         6.4547340971       14.4404920164        6.0928849564
  O         4.3770285516       10.0458865814        1.0159312545
  O         2.3522757338        9.7656163935        6.7417780366
  O         5.5232119823       14.2841012676        3.7371017882
  O         4.5186911060       13.9636419458        1.3205068437
 Si         6.2990653310       10.6824669076        6.5339601873
  O         6.6067541331        8.8080030229        3.5988797494
 Si         4.7649121702       13.2769948021        2.7414461027
  O         3.2903040848       12.8709262578        3.1997593637
  O         2.5825610201       10.8343617216        4.5176058655
 Si         5.6750264962       10.9875479952        1.1070913560
 Si         3.4526999480       10.0249551056        5.5707296390
 Si         2.1636308778       11.7438847808        3.2920011500
  O         5.6161670605       11.9318205895        2.4260913701
 Si         4.0524300282        8.4656789810        1.0460948653
  O         4.1374655875        8.7974113664        4.7535743963
  O         2.4897491704        8.3490878569        1.2452195253
  O         0.7742349361       12.4790444025        3.5831480133
  O         1.8749361629       10.8383584152        1.9638771622
 Si         5.2089034604        7.9979581057        3.8319914417
  O         6.9270707284       10.0065868085        1.2370968282
 Si         1.3193483486        9.3333273053        1.7082210302
  O         4.7387434966       10.8354464550        6.1431441888
  O         0.7670997110        8.7956394316        3.1245108048
  O         6.7852836072        9.1313727737        6.3115363658
  O         0.3088559920        9.2072064136        0.4562677142
  O         7.1753242430       11.8595846706        5.8558534786
 Si         7.0457971526        7.8449766293        7.2963122521
  O         8.7509996269       13.8028561651        5.2141162497
  O        11.2576478890       13.4866650945        4.9906303409
  O        13.3341087491       13.1856151070        3.5172724353
  O        14.8164899163       12.9321523609        1.1706304813
  O         9.5930470224       12.1727526630        3.3536996220
 Si        12.6097650544       12.6276900031        4.8770385956
 Si         7.5850623081        9.0229487502        2.3240499988
 Si         9.7747160638       11.0557646758        2.2194328258
  O         7.8023087442        7.6393573050        1.5565759415
  O        12.2424877261       11.0747639826        4.5849825247
 Si        14.4431917351       12.3902177202        2.6442280426
 Si         7.6432711878       13.3617733749        6.2780543530
  O        12.4744889066        8.7416829855        3.5113749139
  O        13.4892284920       12.6348463334        6.2132365415
  O        13.8811034533       10.8531502962        2.5611016404
 Si         9.8896325790       13.5492688583        4.1271322776
  O         8.9662087103        9.7424825360        2.7231638761
  O        11.3354772203       10.6673752819        2.1143730200
  O         9.2856896772       11.6222730995        0.7907209364
  O        11.0772061429       14.1944587518        0.7856554514
  O         9.9159898890       14.7396365065        3.0480008454
 Si        12.4872902540       10.2969659061        3.1879746415
 Si         6.3623919800        3.9036618180       10.6352298125
  O         6.6983331084        3.7404888170       12.2341068411
 Si         4.3169650142        5.8952874905       11.3179161933
  O         1.4833942999        4.7650376084       12.9434689305
  O         3.3322065690        4.5918870823       11.3129606284
 Si         2.3557002790        4.7290190970       14.3129891607
  O         5.4539436535        5.2226539069       10.3076685845
  O         5.2885328496        6.3107348256       12.5374846081
  O         5.7586445041        2.4333513840       10.2058964326
 Si         6.1966694529        0.9326315270       10.6837814044
 Si         1.7215548491        4.3353522605       11.4040617827
  O         1.9495457694        0.8452967828       14.0333799404
  O         1.1023594875        5.3069455789       10.2810799518
  O         1.0845671194        2.8656294082       11.1605303311
 Si         5.0486869762        6.3202470433       14.1132068362
 Si         0.4149497865        5.5593884733        8.8444559347
  O         7.0966384996        1.1723431489       12.0178528867
  O         3.8898164883        5.2242636257       14.3367755667
  O         1.1657009764        0.3097445217       11.6184601097
  O         1.3919251564        5.8432201998        7.5813265563
  O         2.4315771201        3.2231083345       14.8156743509
 Si         0.1715451118        1.5109125496       11.1920353897
  O         7.1043307287        0.1622646804        9.5920587139
  O         6.4766901398        6.0169861374       14.7523884536
  O         3.3507593142        7.2471983808       11.3153322095
  O         4.5292147031        7.7425870911       14.6688252763
  O         7.2464540614        2.3261665518       14.4242394352
  O        14.5788540912        6.9443167343        8.9759205574
  O         7.7854354291        4.0394994064        9.9004017613
  O        14.5038909814        1.1670451486        9.7568300217
  O        13.4942142682        1.9426500312        7.5633011361
 Si         7.5323578852        2.4909375491       12.8587098889
  O        14.5142979114        4.2277499591        8.5755900096
  O         9.8207572242        3.5904771133        8.3389406188
  O         9.3587916653        6.0143737237        9.4232639492
  O        10.3051871846        4.0417962740       10.8368861599
  O         9.1119874206        2.7244532161       12.7151021710
  O        10.2941869315        5.0667716049       13.1888118210
 Si        10.3693455022        3.6698297752       12.4013184391
 Si         9.3166616600        4.4219870461        9.6303733023
  O        11.6888179038        2.8112345985       12.7904317899
 Si        10.1912552018        6.1284877408       14.3937850710
 Si        12.2994864835        1.3413610358       12.4787737943
  O        13.8877445213        1.5641140545       12.2295207992
 Si        13.6285314053        0.6191878774        8.5117417481
 Si         9.8048239377        7.0263768808        8.2502634706
  O        11.4746774589        0.7695891417       11.2183403005
  O         9.0491768588        1.0761621161        8.0409761024
  O        12.0952432301        0.1653079009        8.8186287954
  O        12.0738782681        0.2371992415       13.6352099033
  O         4.9156357866       14.9561252048       10.9961848012
  O         6.4712747659       10.9962026473        8.0925874034
 Si         1.7494792237       14.6344857115       12.9749659809
 Si         1.5539230803       10.4818732893        7.9792813100
  O         3.1543765443       13.8846553268       12.6365370184
  O         5.6876900788       12.7963703722       12.3176745164
  O         6.6344612564        8.4224496201        8.7565166937
  O         1.0998000795        8.2618266244       10.7691596456
 Si         4.4080260003       13.5475232643       11.6413480941
  O         5.3233714983       10.2231310533       10.1483025453
  O         3.8945881467       12.4285653540       10.5999486671
 Si         2.3801029804        8.5426545063       11.6892139990
  O         3.1245625653        9.9100306522       11.3127017085
  O         2.7995364391       10.8361039115        8.9617311984
  O         1.8019095726        8.9525176940       13.1879483286
 Si         3.8192368567       10.8621065257       10.2232299160
 Si         6.6708331747        9.9596331768        9.2988978943
 Si         6.4399267893       12.8957030913       13.7342889782
  O         0.4724645735        9.4302209503        8.5829687967
 Si         0.5004089327        9.6805717318       13.8872303910
  O         6.0080945517       14.4071166980       14.1952263240
  O         0.6185009517       13.7237090246       13.6551794687
  O         5.7698604933       11.8510307099       14.7481117598
  O         0.6118614577       11.7919146266        7.6489645342
  O         0.3873323845       11.2992690572       14.0358550498
 Si        -0.0604402920        8.3593369675        9.6736861504
  O        13.5549092799        8.7440262214       10.4526204743
  O        11.7785776999       13.1783232382       10.5344242950
 Si        11.7378162746       13.7862578965       14.3299585127
 Si        14.1513561283       12.6065319360        7.6886881610
 Si        14.7122097558       12.7014861643       14.5266787840
  O        11.8454382140        8.9733090960       12.5561079926
  O        10.1339556770        8.4794842178        8.8918411060
  O        10.8352293684       10.7649948957        9.8303698675
  O         9.7367640051       10.3102646035       13.5735096472
 Si         9.4063253578       11.7916261544       14.1568900407
  O         9.9803168538        7.6369204140       13.8026818218
 Si         8.4683417184       14.7785428464        8.8152482447
  O        12.9592536585       11.0540027290       11.3144506490
  O        13.1187667486       12.9357037055       14.2772051097
  O         8.0137484898       12.4858182263       13.6439508482
 Si        12.1649012501       11.6937379222       10.0531921385
  O        13.1158390777       11.8614859252        8.7321661073
  O        10.6050087459       12.7940210991       13.7173696918
  O        14.2661027214        9.2851464303       12.9296496194
 Si         9.6954876108        9.6036837134        9.9788125613
  O        14.3496329104       14.1982647909        8.0354788931
 Si        11.2367314773       14.6234557760       10.0894877962
 Si        10.2720640391        8.9435044478       12.8798099056
 Si        13.1524992153        9.5221224893       11.8157881618
  O         8.1854415250       10.2121922804        9.8240806198
  O         9.6662273230       14.4180113893        9.8274963052
  O         9.5933730651        8.8843572732       11.4220302624
  O         8.1879957040       13.5564409551        7.7898209702
