216
14.957 14.957 14.957
 Si         1.5742268595        4.1086315302        5.2218564707
  O         5.3162162959        5.6281123798        5.7407399605
  O         3.4881051549        2.8233630564        2.0782932475
 Si         1.9404450234        3.1974972068        2.2254958982
 Si         4.7454896910        2.1047427451        1.4141434845
  O         1.0149801227        1.9035672548        2.0052265564
  O         1.7477687187        3.5812490114        3.7430482251
  O         1.4921486715        4.3995061130        1.2393986865
 Si         6.3808037741        3.4594107083        3.5168044304
  O         3.0111326719        4.3939094025        5.8890600352
  O         6.0673157804        2.5001525155        2.2527336563
  O         0.7481074295        5.4797702093        5.0765239659
  O         5.1471948199        3.4053388901        4.5641956922
 Si         4.6037762171        4.2091454649        5.8574338587
  O         0.8388425786        2.9668939602        6.0853608318
  O         4.7404861591        0.4931260266        1.4958990164
  O         1.6716480003        6.9942087080        0.9083492472
  O         6.6451538643        4.9008243712        2.8363270520
 Si         5.5065574523        7.1814506802        5.5188832952
 Si         0.2535170911        6.8119611399        4.3343171307
  O         6.9267911530        7.5011509624        6.2281601884
 Si         1.4841910054        5.5943174891        0.1523426301
  O         7.0437823175        5.7525928568        0.3950180897
  O         5.0684229955        3.5622143437        7.2477268332
 Si         0.5602834318        2.2595737408        7.5069366583
 Si        14.9505769875        1.5986732117        0.8135073562
  O         7.8133125636        7.1442883229        2.4082626499
  O         7.7255122617        3.0811200878        4.3241443425
 Si         7.6748208679        5.6524460228        1.8544911190
  O         9.1373559424        4.9772546337        1.8298508096
  O         8.4684389430        5.3111627460        5.6426222523
  O        11.4480326090        3.6683011872        1.8348414761
 Si        12.2035449732        2.5226322991        1.0622585922
 Si        10.5051154833        4.6653785342        2.6393825811
  O        10.1368217172        4.0629113176        4.0827425726
  O        11.3767109397        5.9765991830        2.8237775215
  O        11.9713957202        1.1550120320        1.8931038254
 Si         8.9248310968        3.8364724902        5.1178269478
  O         9.3683277355        2.8562113068        6.3064570079
  O        13.8007176299        2.7392557484        0.9066365226
 Si         8.2644964704        6.6308081556        6.5601311964
  O        13.8639178257        6.5600702536        3.4886301901
 Si        12.4580725199        7.1241396125        2.9280329993
 Si        12.8175408745        0.8449589037        7.1863973520
  O         9.2167790796        0.1681604080        6.8133694554
 Si         9.7713515284        1.6322805521        7.2696031412
  O        14.2058939168        0.1700712875        0.9838404212
  O        11.3823723622        1.5804204927        7.2245367799
  O        13.9501467963        1.9138854131        7.5707186258
  O        13.2971856011        0.1659530850        5.8119119358
  O         3.0779235090       14.7096406288        6.2283534059
  O         5.7354232791        7.5666296493        3.9895261546
  O         1.4131915385        7.4799804123        3.4127674391
  O         5.7473973693       14.8311117368        3.9603642912
  O         4.1477777808        7.8943473369        5.9915315702
 Si         5.4136503098       14.3450024876        2.4289051744
  O         1.7539780756        8.8923956051        6.8992976209
  O         4.7293646783       10.6433674695        0.6572357937
 Si         1.9119164318        8.1247207644        2.0108294932
 Si         6.8496700436        8.2349488324        3.0596857926
  O         4.3061477593       13.1851261624        2.5846067912
 Si         1.9921318698       13.6894688584        5.4991717747
  O         5.3175515533       12.4683410969        4.8979320843
  O         5.9922054932        9.0608541994        2.0006666990
 Si         4.0943728974       12.1992145168        3.8503414901
  O         4.1570678015       10.7074862224        3.2495107003
  O         3.4639633405        8.5632712071        1.9884521068
 Si         4.5489069546        9.7612175387        1.9813312450
  O         2.6724626458       12.5533123872        4.5737799701
  O         1.0929129214        9.4601298272        1.6558339597
 Si         6.4014742457       13.6912162345        4.9318410583
  O         6.8071349111       13.7216363880        1.8407308843
  O         0.7742961156       14.4559534591        4.7409093436
  O         6.7982300476       14.1270263171        6.4076617542
 Si         3.3479983585        8.7591236467        7.0987688708
 Si         0.2190428973        9.0866809308        6.3863895410
  O         0.6723467035       11.8033698825        0.4068461429
  O         4.0691430734       10.2134562911        6.9933436375
  O         1.4077039031       13.2875267968        6.9944590848
 Si         0.1133111665       10.7146230511        1.4503210877
  O        -0.1696276569        7.8193816959        5.4942279239
  O        11.4802325894        9.3904394638       -0.1608650281
  O        15.1192138417       10.3781561839        5.4067963018
  O         9.2134357999       10.0501908880        7.2286593050
  O        12.0544080806       13.5341308980        1.4158414511
  O        10.2204878456       10.4782142896        3.7448616438
  O        13.7074728714       10.1284739962        0.8287416967
 Si        14.2132642547       11.2266232887        4.3721536456
  O         9.5636566339        7.5754484059        6.4786239533
  O         7.8106124176       13.2926399312        4.2248871285
 Si        10.1395520751       10.2033050756        0.1845357204
 Si        10.5290315855       13.3172651220        0.9310977472
  O         9.4741495861        9.5502789396        1.5014788156
  O        14.8820202452       11.3893083054        2.9067691004
 Si         8.9069921006       10.1772541535        2.8740721267
 Si        14.1184430718       14.2109010520        4.7784270368
  O        12.7887995090        7.7394896313        1.4945991282
 Si        12.9039823305        8.8247516484        0.3247610531
 Si        12.9162221702       14.7978968072        1.9142832045
  O        13.9571194119       12.6401980748        5.0739704794
  O        11.7199303579        8.2297480455        3.8164725325
 Si        10.3324070633        8.9006467245        6.9998097292
  O         7.9153862445        9.2375496797        3.7374394925
 Si        11.4941596717        9.7115602190        4.3622588662
  O        10.3823984922       11.8052131896        0.3406024086
  O        12.8014108836       10.5538632313        4.0670764096
  O         8.0559828823       11.4601576073        2.4157438020
  O        13.4646399218       14.5391659601        3.3730119944
  O         9.4905982888       13.5510864140        2.1537937470
 Si         8.0531303805       13.0452651022        2.6441959322
 Si         8.0797022883       14.1214584547        7.3963935020
  O        11.3064836198        9.5619698134        5.9237119016
 Si         3.4844193289        3.9543863772       11.1267773164
  O         3.9934760624        2.9986027535       12.2976741492
  O         3.8155849253        5.4636600578       11.6392478740
  O         4.1614402234        3.4967433380        9.7300972586
  O         1.8959313992        3.8229157055       10.9788690527
 Si         3.6611619823        6.1740297761       13.0971134098
  O         3.2409168093        0.8268768740       13.3766388380
 Si         4.4680179583        1.9108696188       13.3541672017
  O         5.9793749118        1.5018554118       12.9654010301
  O         5.1327631681        6.3960201242       13.7097782363
  O         6.3368717679        2.0822525935        8.9092897634
 Si         5.4838369622        3.4465829294        8.7966526625
 Si         6.7025021167        6.5059440478       13.9789397394
  O         6.4001621548        4.6533118406        9.3112277756
 Si         0.5346206489        3.7146777595       10.1391186472
 Si         7.0962952344        0.5689757540       12.2940879847
  O         0.8340315363        0.5961594133       12.1117576924
  O         0.9158917354        3.3267157165        8.6371045912
  O         2.7370175359        5.3207636828       14.1148142103
 Si         7.1765134130        6.0481666565        9.3729990129
 Si         1.6447453963        0.5482648969       13.5165558631
  O         0.9142075983        1.6557413730       14.4487063921
  O         1.4059911390        0.9231174664        7.8841356845
  O         6.0711475829        7.2180731907        9.5423308503
  O         4.6662800527        2.5158233467       14.8290232778
  O         0.0897220019        5.7241355667       14.2930634284
  O         7.5652622464       -0.2361047818        8.8079078197
  O         7.7223293093        1.2453686972       10.9658947976
  O         7.5682041371        5.7234445671       12.8760017820
  O        14.7724262766        5.1488851194       10.0482485859
 Si         7.6735160973        1.2872243444        9.3602346755
  O        14.5532394013        2.5668231225       10.7980207152
  O         8.0619034143        6.1513995622        8.0572686634
  O         8.3142760851        6.0725101242       10.4930256712
  O        14.3639415344        6.8155460861       11.9495207922
 Si        14.3671175808        1.1501264828       11.5654578384
  O        10.1326776709        5.3138890879       12.2949483464
 Si        11.8914358547        2.1009783475       12.9991781438
 Si         8.8339355146        6.1882985999       11.9965192049
 Si        13.9093192140        6.5309912767       13.4762445140
  O        12.5690535874        5.5934904632       13.3897472110
 Si        11.6920784590        4.9974467510       12.1521628765
  O        11.8073373067        3.3982526407       12.0623891333
  O        12.2971102965        5.6488467468       10.8067527848
  O        13.3468250463        1.4143958269       12.7989810808
 Si        13.7570174904        6.2979787591       10.5354096499
  O        10.7190126790        1.0692531348       12.6321296180
  O         9.0483311545        1.9078480182        8.7183051630
  O        11.6282795879        2.4879542255       14.5297132903
  O         8.3543681210        0.1669385094       13.2108280580
  O        13.7081375346        0.0088652599       10.6331415244
  O        13.5443375165        7.4765486974        9.4669111883
  O         2.9098319933        7.6003996802       12.9539915595
 Si         2.2613011170       14.5361668349        7.6682768752
  O         3.6656793194        8.0629211585        8.5467929954
 Si         4.9088443711        8.3257710776        9.5723665797
 Si         4.3549343494       11.2010011306       14.1693466594
  O         4.3925799856        8.4737929241       11.0714969556
  O         4.4879712947       12.1234691736        8.6454561513
  O         4.0549008335        9.9564877667       13.2067745673
 Si         5.7043569164       12.7413753104       11.9372974508
 Si         3.3432941156        8.9480460760       12.1902351488
  O         2.1613015375       11.8929216017       10.1889030138
  O         4.3111504672       12.8720153447       11.1289107821
  O         5.4809997866       12.0569951285       13.3859708971
  O         2.0805231298        9.7092424089       11.5601314854
 Si         3.4805196404       12.7375039575        9.7525887251
  O         6.2395161824       14.2180207716       12.0431884862
  O         1.1759350494       11.9627989430       12.7166048921
 Si         1.3318743875       11.1190708305       11.3549256891
  O         2.9863041428       14.1277415696        9.0513970449
  O         5.4935203378        9.7527972377        9.1346825025
 Si         1.5532556239       12.4822010902       14.1948048729
  O         1.4102045374       14.0745253242       14.2086295939
  O         3.0864067083       12.1306128615       14.4475145703
 Si         5.1925375190       10.8355077914        7.9780994882
  O         6.8305653055       11.9651278512       11.1252482561
  O         7.1533574923        8.0730160779       13.8752576711
  O         6.6171576920       11.1126779496        7.2488481653
  O         7.8074719886        9.7305775941       11.7948116689
  O         9.5544769292       11.7120423820       11.0572642323
  O        11.3654746076       13.6323404521       10.2228753393
  O         8.6469809843       12.6291917767        7.6344698904
  O        10.4646828121       13.4521066830       12.6323123779
  O        13.6173692388       12.5520295819        9.5592702912
  O         8.0663570917       10.6259005127        9.3444913210
  O        12.2031885637       11.6339587731       11.5563973345
  O        14.7777216508       10.7831965478       10.9676980160
 Si        12.9311457011        8.7406041664        8.6610709820
 Si         8.3156440686        8.8592868329       13.0404254423
 Si        10.8793448016       12.5760604437       11.3619635125
  O        12.7184742469       14.6141843556        8.2410067564
  O        10.2228129457       14.5313813476       14.8697031149
  O         9.1270155204        9.8985275079       13.9432246406
 Si        12.8605911530       13.9731622747        9.6803255669
  O        12.7206523370        9.9962378305        9.6383207453
  O        11.4017965078        8.4689574147        8.1465973063
  O         9.2336316088        7.7034878697       12.3914023323
  O        13.6276243599        7.9845203985       14.1164231537
 Si         9.9275649515       14.8027351958       13.3151279482
 Si         8.1507558609       11.0960041039        7.8275462143
 Si        13.3371320139       11.2276207305       10.4459340490
 Si         8.0985143201       11.0204093664       10.8809461955
  O        14.0535199577        9.1437145700        7.5538918897
