216
14.772 14.772 14.772
  O         3.6073628089        4.4222940547        5.6550861975
 Si         3.6542455029        3.0864237754        4.7660161246
 Si         3.4000557225        5.9200248691        6.1877015579
  O         2.6962610045        3.1821300734        3.4339696414
  O         4.2705577803        6.9017790432        5.2576793994
  O         5.9748413446        5.6557931158        3.6092883456
 Si         6.4013357726        1.6592595718        4.7058294500
  O         5.2379352089        2.7849766419        4.5135539607
  O         1.8253267255        6.2309473523        6.1567319852
 Si         1.5403129993        2.4054211421        2.5861150956
  O         1.5714053078        2.8791788377        1.0569967936
  O         2.9572915129        1.8983759011        5.5771979383
  O         1.8236129061        0.8208888420        2.4824203158
 Si         2.3562013300        1.0471271671        6.7745381931
  O         1.6455058796        6.4015535996        1.4700809236
 Si         0.2697318657        6.6375618393        6.1672544996
 Si         4.9918250089        6.9213005925        3.8288275794
  O         3.7712646623        6.8125193378        2.7911437075
  O         7.2271506027        1.3911920811        3.3531565143
  O         5.5733806889        0.3227600384        5.0107419473
  O         1.2392737958        0.0784603996        6.1556872892
  O         0.0000881475        2.5454714519        3.1240296876
 Si         1.0211191610        6.1457517664        0.0169517782
  O        14.6001281559        7.1363936025        4.6907486091
  O         7.5319723512        2.0530362077        5.8205109160
 Si         7.4745494790        5.3335743436        3.1047362187
  O         7.5543884869        2.0538940567        0.8750980730
  O         7.7116754158        6.1415546263        1.7372146310
  O         7.7937954945        3.8083983458        2.8044667796
  O        14.1189452199        5.3448857258        6.4862425533
 Si         8.1084059881        2.2969582958        2.3664882244
  O         9.6902576330        1.9636861440        2.5383816667
  O        11.5785252142        2.9551367410        1.0612356210
 Si        11.8873083624        1.9711341689        6.1696125570
  O        12.8825215096        2.1480953129        4.9211833518
  O         8.4763825270        5.8424369894        4.2689471973
 Si        13.6319803964        1.5074533463        3.6551808019
 Si        11.0934373471        1.6131387426        1.8034097509
  O        10.2761403986        2.1299931807        5.9209024465
  O        12.3784749621        1.1528543402        2.6905173473
 Si         8.8676151999        1.9612616028        6.7391079568
  O        12.3152359103        3.2867582012        7.0619291116
  O        12.0608767776        6.6480747770        1.2475560997
  O        12.1462014042        0.3996089692        6.6383218160
 Si         9.3677473714        7.1888252864        4.3453077293
 Si        12.8207483900        4.8267421793        7.3150648098
  O        14.4439959244        0.1593064164        4.0140454258
  O        10.8295562507        0.4161860154        0.7383134914
  O        11.6512876360        5.9073028953        7.0609143713
 Si        10.2977990072        6.7725360313        7.2103463633
  O         9.9418684285        7.4629181498        5.8069149821
  O        10.5743325163        7.0589604180        3.2855122145
  O        14.3408091855        6.8253825884       -0.0101302595
 Si         2.5044601594        7.5714293950        2.1780937468
 Si         1.7538597751       14.4656687633        1.3392007756
  O         1.3140699367       10.5860256187        0.8230992387
  O         1.4712028777        8.3648202253        3.1221328241
  O         1.4631365953       12.8902824844        4.4251249391
  O         3.1175009505        8.7873819855        1.3116088171
  O         5.8281088522        8.2913112534        3.6877382842
  O         4.1057790291       12.9737498726        4.1836019418
  O         2.4532287174       13.2128341564        2.0430256793
 Si         2.7326940685       12.5039127740        3.4629683375
 Si         5.4113281368       13.4973400552        5.0032217281
  O         2.8684452068       10.9608040859        2.9486228167
 Si         2.7986898400       10.3723871034        1.4157607229
  O         5.1610552005       13.1246146704        6.5749047382
  O         6.8014885915       12.9519838992        4.3642901968
 Si         0.4318866588       13.9726379790        5.0783037180
 Si         0.2642849797        9.5535160133        6.7581128434
  O         0.5702287171        9.6084813578        5.1774427668
 Si         7.1639650534        9.0165836621        3.1415413825
  O         3.9302388273       11.0764826281        0.4982884614
 Si         0.1638687387        8.5636208887        4.0208846036
  O         0.1583494675        7.9611533768        7.1385498476
  O         0.2662114629       14.2110700790        0.7465644617
  O         7.1391133760       10.5863997282        3.4491187367
  O         2.6483145118       14.8613471717        0.0801478691
  O         7.3121536760        8.6973711701        1.5536921523
  O         8.4519821356        8.4467443287        3.9306578193
  O        13.9530403086       13.2907238108        5.8354747015
 Si        10.8503612669       12.3511254999        3.6697119158
 Si         7.7975128744       11.6677320914        4.4574923702
 Si        14.7045069245       10.5963594442        0.0043822012
  O        11.4091097459        9.1267042485        1.8902764636
  O        13.4780094854       10.4228381223        1.0568752026
  O        13.6301479777        9.1174211026        3.2781500926
 Si        12.3858638615       13.6146327474        6.1364536939
  O        11.9777792015       11.2307725589        3.2703332099
  O         7.7077181728       11.2419261258        5.9967783636
  O         9.3723557954       11.8269962930        4.1081929684
  O        11.4808862283       13.2974290658        4.8275136391
  O        12.6530241118       13.2891434924        0.8276155311
  O        10.5281039244       13.2162384334        2.3548839313
  O        11.9881101431       12.4813905271        7.2203991875
 Si        12.6407101428       10.0249824700        2.3864595014
 Si        11.0808292056       13.5997488788        0.8998142205
 Si         8.0381203615        7.4243214026        0.8373440108
  O        13.6196278398       10.2639351590        7.0563636373
 Si        10.9109598289        7.6090224456        1.8117019310
  O         9.6318845956        7.6289642679        0.8340894877
  O         4.6813834553        2.7850123259       12.6394287259
 Si         5.4583403517        4.1842878886       12.9000900084
  O         1.8076504099        4.1302625076        9.3676001164
 Si         5.3692732020        1.3394664467       12.4133039708
  O         5.9822010568        4.6791156624       11.4743528385
 Si         3.1699965545        6.0195426330       12.7640754294
  O         4.4440833141        5.3237023308       13.4662995048
  O         1.3974220643        6.5663252196       10.2583358274
 Si         1.4188693417        5.0264873389       10.6620177456
 Si         1.2744536472        1.3449974179       11.9639482516
  O         2.4497025750        4.8492114239       11.8919776834
 Si         6.6852491535        5.7155754495       10.4800295420
  O         1.8948342812        1.8879208814       10.5839697036
 Si         1.2786020765        2.6003220814        9.2773836550
  O         6.8197048448        1.3913275215       13.1347814542
  O         5.5788849069        6.5688242066        9.6837653810
  O         1.3894283718        2.3712933663       13.2047602241
  O         6.7228430322        3.8586704703       13.8717318077
  O         2.1330334472        6.7254660486       13.7788825561
  O         5.4952596341        0.9810953254       10.8397420726
  O         1.6467561104        1.9666962179        7.8778060127
  O         4.5329015305        0.1833425782       13.1264932814
 Si         0.7243915064        3.0798046842       14.4843696737
 Si         4.5695350042        7.2996018087        8.6592371154
  O         3.5224639128        7.2157819736       11.7398941774
  O         0.7466386039        4.6614006427       14.2828209146
  O         2.0529453172       -0.0074205809       12.3147970626
  O         4.0222889975        6.1655198293        7.6542907395
  O         3.6082351352        0.3240818974        7.4630046081
  O        14.5207561880        0.9939209687       11.6545359796
  O        14.6889945041        4.5903131460       11.0820782217
  O         7.6401057189        6.6488364208       11.4087195374
 Si         7.5551172113        2.4685077100       14.0941032679
  O         7.5522150776        4.8455268633        9.4411247550
  O        14.4328245770        2.6274001481        9.4220932114
  O        13.2951063813        4.9305290126        8.8509774487
  O         9.1075667878        2.5371794669       13.6965059336
  O        12.2653679907        3.6347660180       10.7555802384
 Si        13.6609628554        3.9039699699       10.0288008938
  O        10.1905228429        4.6754049955        9.5245747065
 Si        11.0703189460        4.7389825752       10.8615235511
 Si         8.8821264075        4.5610537530        8.5916432438
  O        10.1731513423        4.1096174747       12.0456449435
 Si        10.2953802414        2.5905628207       12.6152645488
  O        10.1782870584        1.4012101108       11.5117973004
  O        11.6587416770        6.2415201055       11.0827551768
  O        11.7432444035        2.4628110568       13.3104715176
  O         8.7825237990        3.1192625813        7.8752023609
  O        12.0715962898        7.0649128921       13.4733510111
  O         9.0883216131        5.7560243642        7.5358820868
  O         8.9328949049        0.4838758071        7.3967697756
  O        12.7133844327        4.7474600538       14.3494374437
  O        13.9820351109        2.5394284000       14.6857106594
 Si        12.5057923044        3.1763685053       14.5356885254
 Si        12.8149085286        6.3086878103       14.6580689193
  O         7.5521114411        7.1304725752       14.1144180636
  O         3.2853586043        8.0386520678        9.3606319530
 Si         4.1517856714       13.6155212849        7.7605992754
 Si         3.1104719595       14.3085696973       13.4241472300
 Si         6.0135901915       14.3667046811       10.1808209353
 Si         2.4132529295        7.7448198070       10.6750393557
  O         4.9304006296       13.6981621023        9.1819708235
  O         3.8310352370       10.6677077740        8.6229351577
  O         1.4730656376        8.8743632248       11.3318957645
  O         5.7315426522       12.3837888850       13.8056628027
  O         3.1948816749       12.7072603914       13.3761081788
  O         4.4251520194       10.4283531813       12.7188019966
 Si         5.6874249440        9.8612972166       11.8779542775
  O         5.4111201879        9.6779564698       10.3301129924
 Si         5.2812856815       10.0001650763        8.7646942930
  O         6.1634965374        8.4645795960       12.4788809864
 Si         4.3049362055       11.6217727208       13.8159379543
  O         1.4601720286       11.5818541956        9.7565931941
  O         6.8985620013       10.9228029409       11.9911164923
  O         6.3166748187       13.3724559518       11.4075639757
 Si         2.3655242213       11.2980262980        8.4305761915
 Si         6.7971435491       12.4140828112       12.5987022769
  O         5.3324559923        8.5697517067        7.9798796276
  O         6.4694892750       10.9813900541        8.2899573959
  O         2.7919140563       12.7255605364        7.7943917489
  O         1.4747711248       10.3411313930        7.4796871591
  O         0.0016658053        9.5205992941       13.5591426524
 Si        13.6571242530       14.4181013697       11.7059627908
  O        13.6339216310       11.8238344132        9.1079792163
 Si        14.7764654507        9.2157885172       11.9600667028
  O         7.3883129241       14.6923253322        9.4288317441
  O        14.5224839528       12.0578713879       14.1222010306
 Si         7.5810875808        7.7229309199       12.6188042396
  O        12.3166750530       14.6895498160       10.8479142434
 Si        14.7073125749       11.8070835700       10.3001369745
 Si         8.7080028329       14.2361173984        8.6286359921
  O        14.2892170115       10.5733899278       11.2465810337
 Si        13.9137077662       13.4590874474       14.6257564000
 Si        10.7105322498       14.7194906868       11.0030304452
 Si        10.1365869476        9.5005140747        8.7378975722
  O        10.0892878074       11.0015738679       12.5522857733
  O        10.4185947468        7.9617225484        8.3010541458
  O        11.4910960179       10.3355258066        8.5450303297
 Si        12.2464864481        7.5019895489       11.9482795297
  O        14.5248234737       13.2065397344       11.0796828553
  O         9.6005832539        9.6825462138       10.2494986170
 Si         9.9708470798        9.5796959655       11.8075094867
  O        11.4031964033        8.8562448405       11.8122887551
 Si        12.6885594740       11.2253057248        7.9659618670
  O         9.9991780906       14.3584993352        9.6006770322
  O         8.4590288874       12.7180816685        8.1166325711
  O        13.3810651889       14.1931592858       13.2911257950
  O         8.8574841352        8.6943558069       12.5513119091
  O        10.4155259688       13.5498393692       12.0619298569
 Si         9.7772516058       12.4936162683       13.0736765577
 Si         7.8955350675       11.2888927419        7.5834435754
  O         8.9404456452       10.1038987766        7.8682593079
  O         8.2101556752       12.8066899971       13.1997148062
  O        13.7823116085        7.9578007233       11.6525152736
  O        10.3568912571       12.7235738022       14.5445444003
