216
14.983 14.983 14.983
 Si         5.7329846978        3.3778487836        4.7342549330
  O         4.2857840330        3.8190236093        4.2203010455
 Si         3.4788474814        4.4668339849        2.9931152734
  O         3.1222415709        5.9990573330        3.3560453174
  O         2.1089972432        3.6756552838        2.7345105785
 Si         1.2603861376        2.3340795638        2.9704169477
  O         2.2530998960        1.0812506145        2.9770123855
  O         5.5376805055        1.9564273424        5.4621829287
  O         4.4518320967        4.3625552955        1.7155748386
  O         6.3424868892        4.3861118434        5.7927257866
  O         0.4021549467        2.4447379903        4.3370436738
  O         6.8108829243        5.3889824828        0.7855913214
  O         7.1820971064        6.7089242009        6.2501873681
  O         4.3770316397        0.4658119436        1.6465843514
 Si         5.3225329448        4.8832255087        0.4727621541
  O         6.7856878073        3.4220824691        3.5081708124
  O         5.4648300969        6.9434549605        4.1395167171
 Si         5.4892767852        0.3782541358        5.1674693435
  O         0.4660085369        1.1684651713        6.5633522299
  O         0.3167417450        5.7011778120        6.9455722724
  O         7.0155388826        0.7028648411        1.8068761956
  O         0.1973475913        2.1040365952        1.7992163990
 Si         5.7798595474        0.2048749089        0.8965870672
 Si         3.4123823453       -0.0025916070        2.8545928589
  O         4.2352359131       -0.0159281695        4.2388327961
  O         1.6256940707        3.4327201372        7.4181998002
  O         4.6062712335        6.2305072224       -0.0065745573
 Si         3.9939384411        7.3400011981        3.5578863809
  O         6.8574449156        0.0796623082        4.3763359578
 Si         7.5544908794        5.1566902781        6.4849437206
 Si        14.6209261898        1.3210163651        5.1980912159
  O         8.7410680487        1.7994959396        3.4319002990
 Si        13.6570049402        2.1678309829        1.3125788348
  O         8.3560224937        3.4276896999        1.3922325951
 Si         8.3146123190        3.3062992217        2.9951290210
 Si        11.6965165615        2.1032151170        6.0567617650
  O        12.9493729337        3.5001581238        1.8842249792
 Si         9.9076299645        5.8905161631        2.6943690574
  O        11.4704114946        5.6079754192        2.4213310875
 Si        12.5848079652        5.0000198888        1.4191351444
  O        13.8227805559        6.0271334061        1.4762598254
  O        13.0374358532        1.6361711039        5.3036816393
  O         9.2159921669        4.5994483529        3.4389704655
  O        11.1598994236        3.5187719817        5.4632011182
  O         9.2108154677        5.9962696692        1.2516417030
 Si        10.6414558349        4.8975511211        6.1748226098
  O         9.0528521640        4.9126472237        6.0010676699
  O        12.8744684359        0.7899877203        1.6325644559
  O        10.5300226526        0.9535972188        6.0809028854
 Si         8.3021244216        4.8400871695        0.6058333054
  O        11.1467743812        6.2979704064        5.5266868122
 Si         7.8502558055        0.4521602309        3.1683699534
 Si        14.5321698060        7.1203988984        6.9509229832
  O         9.6698232362        7.3029028543        3.4378414578
  O        12.9286648310        7.1044039723        7.0236456352
  O        12.1670190076        2.4125945543        7.5693791706
 Si         4.1467229134        7.7022991904        0.4333744066
 Si         6.4251124422        7.6936007902        5.2226796610
  O         4.1376478338        7.9600166114        2.0512945492
  O         5.3854771984       14.5349078385        6.5497926866
  O         3.3464681189        8.2641040261        4.7537200877
  O         5.4800723698        8.6728119052        6.0939690487
  O         3.2767498909        9.9873843795        6.8717906372
  O         2.4850012407       11.4718872406        0.8623664194
 Si         3.8737323751        8.6352784560        6.2694902902
  O         1.4817653141       11.4852785094        5.8692972503
  O         4.6798900945       11.7778009528        2.1139404323
 Si         3.0829832552       11.9493320041        2.2705948495
  O         2.4250057192       11.0083785842        3.4285574550
  O         2.8123596845       13.5117793787        2.5724818738
 Si         1.0946116120       11.2276504841        4.3393889013
 Si         5.8285621436       12.0522755320        1.0088243885
 Si         2.5917019072       11.4369351407        7.0171763762
  O         3.8029775677       12.4678576433        6.7074908843
  O         7.1753431850       11.5483832508        1.7148207936
 Si         5.2195937708       13.0639261845        7.1994735387
  O         5.9306441566       13.6124991165        0.6279696350
  O         6.5802175729       12.2551031100        6.7888821680
  O         0.4673076961        7.9659441412        0.7799756027
  O         0.4637716677       12.5620773140        3.7481893213
  O         3.5073297500        7.5718740554        7.4271666268
  O         7.5007692359        8.5078425914        4.3714934389
  O        14.9064251781       10.1215526621        4.3000341149
  O        11.4631159902       11.1588853660        6.0050274059
 Si         8.6326139556       10.8999393176        1.5823409017
  O         9.6829361187       11.7863825923        2.4102869546
  O        12.9547428831        8.4959522317        0.7914827782
 Si        14.1946565609        8.6904043382        4.4759893610
  O        13.2708615930       12.8750863437        5.2370336259
 Si        14.0976465762        7.6157800425        1.5313919990
  O         8.8281825925       13.7395169917        6.7048127057
 Si         8.1514490763       12.3337350650        7.2266789784
 Si        11.7256314496       12.6964854896        5.6128416375
  O        14.7480350832       14.9104242452        4.4390687846
  O        12.7989359894       13.3428190112        0.2223867659
 Si        10.1331001877       14.6708814764        7.0475758100
  O         8.9714921163       11.0089263413        6.7153728085
  O        14.9970641191        7.8807246568        5.6131316346
 Si        10.0553484213       13.2518336082        2.9393745954
  O        10.9495171229       14.0435914842        1.8718769189
  O        11.3880201591       13.6544961913        6.8773319200
  O        10.7761491759       13.1123156385        4.3721991454
 Si        10.1884322620       10.1678437097        6.0113751698
 Si         8.9046928468        8.7182711341        3.6203146240
  O        10.6989686370        8.7363718388        6.6411975860
  O         8.6631507538        9.4072766324        2.1867587995
  O         9.7516830561        9.7534106100        4.5184153109
  O        14.2765998926        8.0162886019        3.0472035229
 Si        12.5080441199       14.2008159052        1.5644525335
 Si        14.1874080884       13.4736644634        4.0578380618
  O        12.6288977239        8.5834718864        4.9183671205
  O         8.7369374786       14.1262650385        3.0502860228
 Si        11.8103625249        7.7010975415        6.0242409028
  O        13.3347922669       13.4934134344        2.7242055848
  O         8.9749831141       10.8532954121        0.0161196744
 Si         3.7732819011        3.3473679626       11.5530027936
  O         5.6284606348        5.1609592765        9.4466561866
  O         3.7529680757        2.6629944061       10.0742492401
 Si         5.0219229759        5.9539123040       10.7119102805
 Si         5.7915860441        2.3303595824       13.5634614703
  O         4.6035492815        2.3312897583       12.4842249408
 Si         3.1110587185        1.1829048536        9.8640300098
  O         1.8774286802        1.1502568103       10.9277877004
  O         4.2962298393        4.8525935040       11.6210020096
 Si         1.1711157602        2.3021875964       11.8292481661
  O         2.2631876629        3.4391795830       12.0929340559
  O         2.3464311335        1.0951933735        8.4274583788
  O         6.1626544512        6.6320669077       11.6256247442
  O         4.1388478132        7.0980120606       10.0525203203
  O         2.4821007347        5.6259301787        8.5862907388
  O         5.5411388111        3.6685133296       14.4278739332
  O         0.7108359309        1.6497885669       13.1872700948
  O         7.1754079730        2.3262718990       12.7174652626
  O         5.7758631607        1.0271540537       14.5007919770
 Si         3.0229944330        7.1130500633        8.8971847602
 Si         1.1916908509        4.8646793584        8.0219536512
  O         0.2187278136        4.6794235389        9.2947114817
 Si         7.1522492063        4.6692747615        9.4239876760
 Si         1.0962298612        1.9411462909        7.8102004311
  O        -0.1665181487        2.9724610985       11.2292333769
  O         7.1740151461        3.2778824838       10.2263774045
  O         4.2751841544        0.0828686870       10.1413525345
  O        -0.1493048249        2.1742243848        8.8181166777
  O         7.6441420942        4.5239340162        7.9442069101
 Si         7.7224096150        6.8779905371       11.2667601419
  O         8.0477294683        5.8616549616       10.0595667851
 Si        14.3490889617        3.3966229035        9.7608968849
  O         8.8893101239        4.5186379822       14.1551946693
 Si         8.0563327678        2.6217899699       11.4058265716
 Si        11.5867603446        3.5234135533        8.5926846300
 Si        14.2341089103        1.2050151654       13.6364909039
  O         8.8202826399        1.3352727202       10.7684828264
  O         8.6629134417        6.3922938922       12.4709460551
  O        13.4343114561        6.1683350468       12.7383546050
  O        12.7758333753        3.7457828177        9.6653044959
  O         9.1321275634        3.7480762822       11.7708930821
 Si         9.4227087216        4.9865879024       12.7290675984
 Si        12.0617125846        5.8641147720       13.5462904046
  O        10.9969588455        5.2144487930       12.5622283118
 Si        10.0658490323        1.3712659944        9.7288468231
  O        10.2239630041        2.8948696115        9.2020182933
  O        13.0361549104        1.2495876328       12.5651539893
  O        11.4696473819        1.0982212160       10.4498516145
  O         9.9034114990        0.3058773897        8.5248659589
 Si        12.2834289973        0.2953039323       11.5456659905
  O        11.4615698089        7.2757514919       14.0505101076
  O        11.1563764216        4.8251641661        7.7252729219
  O        13.7236941119        2.2649776494       14.7100106899
  O        12.1730501061        4.9142373098       14.8396434559
  O         0.6907720449        7.5643122727       13.1682978188
  O         1.9547086307        8.0359921900        9.6714624602
 Si         1.5878466967       11.4594383964       14.5240747789
  O         5.0714210383       13.0285444584        8.8037081028
  O         6.6462445250       13.5716428803       10.6972321299
 Si         5.0535754482       13.6371255466       10.2917870309
 Si         1.0352682995       11.3553577088        9.8239733928
 Si         5.3131978727       10.0273096959       13.6645098848
  O         6.6395799501        9.5991846519       12.8775357858
  O         4.1496186195       10.3868893162       12.5765695557
 Si         3.2701860285       11.6534395203       12.0525104615
  O         2.4208194139       12.1759800667       13.3326242219
  O         2.1925886211       11.2366647736       10.9313058480
  O         4.2200380802       12.7886354164       11.3907275373
  O         1.8011542050       11.7023070882        8.4233657100
  O         0.2344025953        9.9780001730        9.7532804776
  O         5.0103116404        8.8260587259       14.6778357461
 Si         1.2742702953        8.3504029400       14.4424159672
  O         5.5440548225       11.3227671576       14.5894283972
  O         0.2285525813       12.2532602301       14.8326671139
  O         1.2512512643        9.9316023538       14.1275688425
 Si         0.3974920141        8.3989568120        9.6815384294
  O         2.7206838735        7.8144719724       14.7432117840
 Si         7.8543433600        9.7579097741       11.8483572349
 Si        14.0631767929       13.1815744888       14.2105566449
  O         7.5712606010       11.0880315527       10.9938335652
 Si         7.9098172455       12.5566253508       10.4042948716
  O        13.4193059014       14.3698192632       10.8451878472
  O        13.7386153407       12.5681231970       12.7538047059
  O        10.4654280058       12.0362862445       13.1816301289
 Si        10.0051024051       10.6404321674       13.7993367749
  O         7.9544986948        8.4308779196       10.9256824015
  O        11.3141212144        9.9037767056       14.3524632396
 Si        12.2696864275        8.6386060111       14.3211619216
 Si        10.7197283680       12.8642761152       11.8394919568
 Si        14.2448217284        7.5453180102       12.4315809992
  O        14.9026910671        7.9504772079        8.2443462295
  O        14.5105988575        7.7257183139       10.8568147537
  O        14.8042565307       12.3318024143       10.2977840797
  O        11.2385533232       14.3191901557       12.3215896415
  O        14.5756771412       14.6963610067       14.1212478585
  O        13.3548327345        8.7389265380       13.1101260346
  O         8.1893358874       12.4057586271        8.8306683619
 Si        13.5158062555       12.7918592093       11.1576342289
  O         9.3064286697       13.0349154286       11.0699982579
  O        11.9618129006       12.2490605284       10.9308759272
  O         9.2648443848        9.8274425099       12.6297861733
