216
15.334 15.334 15.334
  O         4.3897653855        5.6896447464        5.1197650318
  O         3.3657498676        4.7102489590        2.8465903281
  O         5.2764047726        5.5816262951        1.2865917269
 Si         4.0376494462        4.3642086496        4.2920160459
  O         5.5875992540        3.8274333844        4.0658345857
 Si         3.8807968008        4.7589814626        1.3048786806
  O         2.8806778632        1.3543830602        2.0789886376
  O         5.5194263424        1.2724236278        2.3129153171
 Si         4.2747966315        1.6170527387        1.3021099882
 Si         4.4912685819        6.6947476052        6.3644463918
  O         2.8677277139        3.4335046355        5.0340225370
 Si         1.5434761539        2.4722040386        5.3318079112
  O         1.7599847923        1.1237339959        4.4741266493
 Si         6.7448239494        5.0971486323        0.8630817543
  O         1.2867631171        2.2273091837        6.9254239633
 Si         7.1118885420        1.0519430221        2.6558041994
  O         4.1610298031        3.1975300673        0.8760942908
 Si         7.1545332482        3.8031663102        3.5676489557
 Si         2.0802471776        0.3875931785        3.0853145597
  O         7.2563247433        4.0756353486        1.9777678329
  O         7.5825103870        2.2349821692        3.6715141046
  O         2.9684788229        5.6871941764        0.3000368410
  O         3.1069735823        7.5170636894        6.2357555052
  O         0.0308097581        2.8811854441        4.8562080861
  O         5.8293750191        7.6608484871        6.3925504733
  O         4.4827589927        5.7512901935        7.6858725270
  O         7.7340007112        6.3669214403        0.7948020086
  O         7.8140385858        1.0369411770        1.2182519517
  O         8.2253530531        4.8698330067        4.2336240770
  O        12.6907161712        5.7430574445        2.9617224364
 Si        12.1956001261        4.2094576109        3.1136989582
  O        13.0006828790        3.5219698008        4.3097780737
 Si        13.8601250267        2.2705631491        4.8049622150
  O        10.7012042776        6.5645639944        4.3839732220
 Si         9.8320802023        5.1389419891        4.5238591151
  O        10.6240664278        4.1593881914        3.5136254577
  O         9.9802707749        4.7159704050        6.0633740479
  O        13.3342124843        1.6764283135        6.2189708629
  O        12.3914708238        3.4241263381        1.7376563047
  O        13.5808118741        1.0350930381        3.8082929767
 Si        12.1995133154        7.0345976648        3.8089189368
  O        10.0443791392        2.3817814437        1.0416754637
 Si        11.5177347342        2.8169503998        0.5386046357
 Si        10.4910381495        4.0087456513        7.3873134287
  O        13.3497066449        7.3470552221        4.9442674960
 Si         9.1189747108        1.2457884639        0.3528225447
  O        12.0614917003        3.6569375320        7.2723495946
  O        12.2122088294        1.4351189837        0.0013128922
  O        10.0638608425       -0.0692443268        0.1585133721
 Si        12.8288280361        2.2844666622        7.6298672969
  O         0.8040026159       15.1056980390        2.3122691468
  O         4.0742302641       10.8152499284        0.4860764546
 Si         7.1020386139        8.6441214557        6.0399563113
  O         6.0712215568       12.4482247782        6.4175925227
  O         5.5046333050        9.2622525404        2.2329463697
  O         2.9675699073       14.4946182281        3.5132317312
  O         5.8205909610       10.9385088118        4.1612746962
  O         2.9595749031        9.6767490223        2.6433012552
 Si         4.0760366179        9.5237989923        1.5026069225
  O         2.7269587259       11.9770639888        3.8312961930
  O         2.5593790600        9.8919219321        5.2782029078
  O         5.0317305539       13.3544368619        4.3138115219
 Si         3.7434783612       13.1346182656        3.3926876216
 Si         6.1644580580       12.3692524429        4.8300793832
 Si         2.2136001346       10.4550456563        3.8241635744
 Si         2.0833993513        8.7619072195        6.3200279282
  O         4.3114056864       12.9342855398        1.9075705787
 Si         6.5783683696        9.7849148659        3.3134822693
  O         0.6154127477       10.2357711705        3.5736553645
  O         7.0807201141       10.1012707830        6.7710301065
  O         0.5541070394        8.3930456544        5.8253413048
  O         7.1012123576        8.7189418806        4.4084029668
 Si         4.9144808251       12.2189289926        0.6056181075
  O         6.3945769395       11.6554130909        0.7170312875
  O         3.6813689234        8.2068490993        0.7183492199
 Si         6.1802304335       11.2541921538        7.4738057097
  O         7.6612164184       12.7069766276        4.3860818393
  O         7.8285914180       10.3856612610        2.4843622254
  O         2.3933327162        9.3480666324        7.8287930106
  O         9.4365914894        8.2280818815        0.0056127920
  O         8.5906363700        8.2067967611        6.5371657454
 Si        11.0407240154       13.0550007634        4.7366179068
  O        15.5671581577       12.4701422237        2.5627424635
  O        12.1351144547        8.3095664842        2.7974316658
 Si        12.1247036187       10.6504024920        6.0675908938
 Si        10.1603528868       13.7152577151        7.5953686603
  O        11.6646934984       11.5483926147        4.7783934988
  O         8.3045790533       12.9218852651        1.7831655546
  O         9.8333131786       15.2712163573        7.3432441951
  O        15.0203746414       13.7360476522        0.3262470071
  O        14.1218381656        7.9946583243        7.4161664185
 Si         9.7780306397        8.8470757778        7.4584389098
 Si         7.8710911568       11.4594747927        1.2648672062
  O        13.4186119266       10.6202915047        2.5578988921
 Si        11.6460120449       15.3145247898        0.5372974307
  O         9.9761150886       13.4189805430        3.5928787655
 Si         8.4104319836       13.5702434362        3.2553349932
  O        13.7421522873       14.1266714728        2.5497221166
  O        11.6645304631       15.4167582701        2.1662328748
  O        13.4153611016        9.7575554817        5.6593788912
  O        12.1443431389       14.2258861619        4.5552418908
 Si        15.1768093321       13.8890075884        1.9263802082
 Si        15.0294399656       10.9538629095        2.4572802158
  O        12.6975445885       11.6652135857        7.1849710735
 Si        12.7470437237       15.0830777142        3.3226365378
  O         7.6636671834       15.0054207019        3.3008202987
  O        13.1842417099        9.2636783398        0.4051837340
  O        10.9583741767       10.0541006675        1.1936743211
  O        10.8649028622        9.7510471223        6.6281214290
  O         8.7844118408       10.8623914958        0.0973980358
  O        10.3021792537       13.0968101288        6.1474344737
 Si        12.3958503525        9.5566723391        1.7938996118
 Si        14.2315908509        8.3726276025        5.8815420694
  O        15.4196998396       10.5226037070        0.9517840879
 Si         1.6622236506        4.4413651961       10.2115414357
  O         4.7116324040        4.0009909609       12.8547183430
  O         4.6974416962        2.0908644336       11.1816838875
 Si         4.1900811749        3.5806228929       11.3782300665
 Si         6.2603129581        4.2975497879       13.2000103531
  O         2.5890027557        3.7558121408       11.3499086505
 Si         4.2327908784        5.7222901270        9.2814425345
  O         6.5322624907        5.7502384954       12.5375959770
  O         4.7970810374        4.4677124171       10.1460290294
  O         2.6130574982        5.5830378469        9.5025362047
  O         1.2007184906        3.2065316587        9.2713306871
  O         5.0287753704        7.0243209469        9.8145548318
 Si         5.1325559102        0.5882296922       11.4645136877
 Si         0.4528460502        2.1340291911        8.3270601775
 Si         6.0196875546        7.1812480342       13.1181605309
  O         0.3894691988        5.1838713000       10.8606400363
  O         6.6288939565        4.3343820857       14.7705227040
  O         0.3890526079        0.5719992143        8.7861182630
  O         6.4618477810        0.4036537629       10.5497999833
 Si         3.3549303772        7.1353839732       14.9207336463
  O         7.1190970076        3.1122228575       12.5320620029
  O         4.7127203250        6.9439538748       14.0471007476
  O         0.3970924924        7.3517699009       12.3096326806
  O         5.4397315448        0.1551552631       13.0179435529
  O         7.3481092023        7.6720997569       13.9073014006
  O         4.3860295518        0.6388627236       15.3406257303
 Si        14.9513288069        6.5681561030       11.1631487264
  O        14.2170841083        2.5652891732        8.3886046384
  O        10.3785845215        5.0283689046        8.6212956879
  O         8.6190075006        1.0317284790       11.8968243687
 Si         8.5109727420        2.3448372990       12.8294294183
  O         9.6527972915        3.5009867007       12.7694651276
  O        13.4054705834        6.3950384450       11.5797942145
  O        11.4277872695        5.4206834410       12.7695077204
 Si        11.8345825394        6.6331740990       11.8469960293
  O        10.8691020110        6.6325107472       10.5514891070
 Si        11.0970312238        6.4132151451        8.9859797229
 Si        10.3635264731        4.6586836651       13.6538020874
  O         9.0949586656        0.8800248108        9.5100260093
  O         8.5472127503        1.7559519839       14.2990028261
  O         9.3224919996        5.7746993738       14.2097971090
  O        12.6968226967        6.4645030826        8.7980313594
 Si        10.0949798065        1.2156582570        8.2868026863
 Si         8.4960551298        7.0187955262       14.8605997370
  O        11.2676657694        3.9699732694       14.7897291562
  O        11.7388050274        1.3662721053        8.4580394535
 Si         8.0809281034        0.2163215761       10.5969627260
  O        14.9281622858        7.4441295210        9.8090940500
  O        10.5401391336        7.5816698099        8.0628208543
  O         9.6613227147        2.6426571113        7.6639168166
  O         2.1570123016        7.8236416420       14.0548033023
  O         3.7780093350       15.0986320837       11.0929532397
  O         5.5852382281        8.2426798543       11.9926812186
 Si         4.5484523757       14.8180878554       14.2190832070
  O         3.1959597858       14.3043902998       13.4994441378
 Si         0.9551099250        8.5347007773       13.2350984265
  O         1.1740722901       14.7685916999       12.1388098422
 Si         5.4664442216        8.4630266106       10.3979135265
  O         6.9511020276        9.0323999464        9.9824627935
  O         3.1200485957       11.6526554393        8.9400065299
  O         1.2895967521       13.5634485923        9.0331333005
  O         4.2450801034        9.4275110112        9.8989578873
 Si         2.7045162641       14.2670942166       11.9719386365
 Si         1.9917396516       12.3419665284        9.8011188564
  O         2.6390956452       12.8521641817       11.1913537552
 Si         3.5890097181       10.1598117155        8.5881858888
  O         0.8903020574       11.1854652251       10.0816041066
  O         1.3551080792        9.8177266444       12.3004593862
  O         6.6885720465       11.9733571923        8.8391113042
 Si         0.3470870542       10.8521108161       11.5608038965
  O         5.0378636123       13.4103466201       14.8524650185
  O         0.2369081783       12.2875921804       12.3006501249
  O         4.7981092700       10.4515302243        7.5876238206
  O        11.5743267831       10.3787812983       11.3459220037
  O         9.0194545038       12.8578249852        8.3151178746
  O        13.0231342338       11.8048714744        9.7342633013
 Si         8.4300834869        9.7353544701       10.1835214415
  O        13.7425644094       11.6655665821       14.6156683131
  O         8.1413466001       13.9158915071       10.4654278415
  O         9.1843384497        9.6491885076        8.7441168465
  O        11.5083417382       13.5794868395        8.4687152582
 Si         8.0413403756       12.5668064792        9.5581761507
 Si        10.6648375978        9.3975780638       12.2561898714
 Si        13.7956013417       13.3222838642       14.6856389915
  O        12.4498261904       14.0508693280       15.2568867200
  O        10.4639498473        9.9968570198       13.7405874211
 Si        15.1659211027       13.8505305055       12.0971522154
 Si        12.9182555501       10.3707843185       10.4617839374
 Si         9.9537832307        9.7686372701       15.2616874373
  O         9.2790846565        9.1060843528       11.4252712046
  O        11.5099059965        8.0491569642       12.5348725461
  O        14.2104675534       10.2085847760       11.4207567552
  O        14.0645194327       14.0503085833       13.2556388183
 Si        14.3549163012       10.1987675290       15.1165983745
 Si        13.6477035083        7.7697346347        8.8914786827
  O        14.6030905320       14.2173460724       10.6292598244
  O        15.1024703874        9.1921837881       14.1196771958
  O         8.3916931733       11.3272418717       10.5336120766
 Si        15.2499546922       14.4052927013        9.1475094416
 Si        12.8607335836       12.7022491745        8.4011984354
  O        14.1134619407       13.7252970824        8.2089592999
  O        12.8679651794        9.0987209408        9.4407953013
