216
15.109 15.109 15.109
 Si         4.3748358861        6.2135065669        5.0850498243
  O         5.5067461507        6.4505141002        3.9388920458
 Si         2.7134401222        3.8458795100        4.0571172557
  O         2.2758171154        3.1519682226        5.4336122975
  O         3.2316221703        5.3125118559        4.4138601724
  O         3.9405614540        2.9907027285        3.4618707081
  O         1.4697629433        4.0060716109        3.0636718815
 Si         6.6927519814        3.9520940197        1.1790303546
  O         5.6636641788        2.7527723738        1.4962961643
 Si         4.6693874402        1.9467679066        2.4730510362
  O         5.1882151180        5.4299015374        6.2984250438
 Si         6.5335076602        4.4685166892        6.3236194185
  O         3.4604295745        1.1843439069        1.7307094284
 Si         6.1657341508        1.2943148710        6.7814783810
  O         1.0236350859        4.9564128216        0.7113323904
 Si         6.9518097793        5.7337521915        3.7093321071
  O         5.5820513702        0.8638291204        3.2194661003
  O         6.1505790671        2.9062325337        6.5354874405
 Si         1.6833938850        3.2955642765        6.9164768974
  O         7.1596170104        4.8049509979        2.4355291182
  O         7.1688764016        4.6472715407        4.8684757299
  O         6.4440113288        0.3208691691        5.5198626913
 Si         0.3117061328        4.1662977929        1.9569449383
  O         5.9067502620        5.0352635706        0.3188120813
 Si         1.8873083826        6.2586432699        0.2540651941
  O         3.5029287676        6.1263569867        0.3928262167
  O         4.6897218042        0.9376314479        7.3279645193
  O         0.0706826787        3.2310242749        6.8453869305
  O         3.5405778587        7.5553134848        5.4938332878
  O         2.2868668701        2.0591828142        7.7275795681
  O         1.4120900184        7.4950906767        1.1829176309
  O         7.7510103685        4.9431687531        7.2963554365
  O         8.0231314663        3.3879550663        0.4727728590
  O         8.0228151173        6.9125777701        3.7091886870
  O        14.8743689431        2.6699900347        1.6454833195
  O        14.0810543824        4.9630333639        2.4483604218
  O        14.2446944331        4.8745636351        4.9687867881
  O        12.6017707414        6.7083548094        3.8457030410
 Si        13.5917310025        1.6859269938        1.6035200608
 Si        11.7503916134        0.7958117534        3.9779088729
  O        12.9833782636        1.3427080104        3.0732753430
 Si        11.3951282242        3.4706810406        5.4234418150
  O        11.9036798919        4.2501754470        4.0811468934
  O        11.2490877044        1.9085778119        5.0386729072
 Si        13.1951594342        5.2084920497        3.7872802204
  O        10.0739210199        4.1719893934        6.0647502230
 Si        14.0117385924        4.2611479868        6.4480058125
  O        12.5837063077        3.5362107905        6.5205086005
  O        12.4367416681        2.3611618358        0.7154816476
  O        10.4563810463        0.4716794819        3.0706642809
  O        14.0091706114        0.3147726633        0.8646071877
 Si         9.3861959427        4.9053294553        7.3568802331
  O        13.9346823942        5.5133662084        7.4084353885
 Si         6.4392643098       14.8696618761        4.0112454318
  O         2.4387541652       14.7960303139        6.6792975112
 Si         2.9445123616       14.8284157204        1.2966651857
  O         1.5609401438       14.3335850875        1.9690247435
  O         1.8028413254       12.3318278623        6.3034061844
  O         2.8540060387        9.9193427071        6.3044236498
  O         0.8573358551       14.0094563985        4.4910990952
 Si         2.4179501666        8.7228718689        5.3285356847
  O         4.0138386005       13.7595157470        1.8890468643
  O         5.7678457446       13.3938378047        3.7753179902
 Si         4.2652804028       12.9939518104        3.3061118519
 Si         2.4036214581       10.6903836447        2.8908879060
  O         2.3581067089        9.3848501443        3.8497941234
  O         3.3767690766       13.5457304531        4.5455309530
 Si         2.1003070433       13.7046246955        5.5266390441
  O         3.8607351315       11.4232895741        3.0587250727
  O         1.9737716125       10.0801513134        1.4490391258
  O         1.3295790740       11.8842121827        3.1463084848
 Si         0.7122555262       13.3828897933        2.9767198013
  O         0.8698487327        8.3404631500        5.7471020832
 Si         0.9596605798        9.0092610220        0.8055494129
 Si         1.9670920440       10.9716044955        7.1374544281
  O         0.5115359356       10.3113402565        7.3949556419
 Si        12.3045732161       10.1886194281        4.9931169408
  O         8.8115376834        8.6594318350        6.8516408959
 Si        13.5800177922       13.8686912779        0.9507412265
  O        13.6149933479        9.7586085116        5.8216888080
 Si        10.5214700588       13.3820378735        0.4743465683
  O        10.3940421284       11.8104698467        0.2376090962
 Si         9.4248086080       14.3347801046        3.0256603428
  O        12.3489273490        9.3521110942        3.6115369215
  O         9.3643778609       13.8393368393        1.4980997479
 Si         8.1246482444        8.8277344348        0.1357572629
  O        10.3075850370        7.7971458867        3.0009551896
  O         7.9695677716       14.7788894336        3.5295329465
 Si        11.3565094135       13.1185978039        4.9502383340
  O        12.1974917061        9.9930726173        0.0792583652
  O        12.1762736600       14.5050851584        4.7142445570
 Si        11.9044676564        7.9114199040        3.0235273799
  O        10.7712940742       13.0555276686        6.4546328653
  O         8.6738496312        9.3740400373        4.3140743681
 Si        14.8330556208        9.1029215292        6.6555909440
 Si         9.5167921934       12.3631359512        7.2102717130
  O        10.9261931744        9.7612210515        5.7428891546
  O        12.3597261670        7.7888402834        1.4949221588
  O         8.8208764520       11.2558972929        6.2223420330
  O        12.2705147063       11.7941278767        4.7196134370
  O         8.0980925332        8.6366188985        1.7466221055
  O        10.0780685808       13.1511884571        3.9363567340
 Si         9.2925550359        9.7659083130        5.7621341426
 Si         8.7665039154        8.2168593442        3.1675934597
  O        11.9658955158       13.7656036684        1.1059411318
  O        14.5059335580        9.2205223670        1.1763591812
  O        14.3434074094       13.2928889496        2.2806142497
 Si        13.1282083052        8.7382386643        0.4680444092
  O         3.1921558782        3.1437421664       11.8789949134
 Si         1.8562958062        5.4895269984        9.0479300705
  O         1.6532173783        4.4068415859       10.2239971712
 Si         1.6893614945        3.2042134001       11.2888540544
  O         4.5621127276        5.1373477563       10.9335626299
 Si         4.5085197997        4.0337418718       12.0786192407
  O         4.2452095597        4.6448686252       13.5276797071
  O         5.9863021834        3.3648772822       11.9601621520
  O         1.4974940079        1.7512680256       10.6224690118
 Si         4.4435911254        6.5495343803       10.2110043582
  O         3.1412016686        6.4517058071        9.2800968283
 Si         2.3870534486        0.4183778016       10.7250937361
  O         5.5124687087        6.9282189201       13.7733175132
  O         1.6558996646        6.6806713757       13.8045727640
  O         0.5708305782        6.4525001573        9.0549178307
  O         0.4587456487        3.3817552040       12.3462857539
  O         3.3027784490        0.4626423132       12.1025164707
  O         5.8353113034        6.8413553677        9.4478543294
 Si         4.7656597496        5.7282102698       14.5778596996
 Si         7.0460385026        6.8340693130       13.2071685088
  O         3.1494339316        0.2288928772        9.3004957562
 Si         3.1510619782        0.6986137782        7.7408412551
  O         7.3951491092        0.9391053342        7.7878117192
  O         2.0479436214        4.7096490920        7.6363963285
  O         7.2362707388        7.4624974013       11.7235597832
 Si         7.4926833907        3.9511645513       12.1697100519
  O         7.3967452564        5.2786677957       13.0605025310
  O         8.3361130877        2.8999723363       13.0094363165
  O        13.5351886595        4.4062096620       11.0973697015
  O        13.0481805517        6.4789858533        9.5925699826
 Si        12.5009982629        5.6186016262       10.8538159347
  O        10.1457887376        2.3719501036       10.6286180309
  O         8.3636726942        4.2606869476       10.8440489750
 Si         9.8396537173        3.9134266145       10.2362299644
  O        13.0686618638        3.4685174479       13.5270219439
  O        11.0141146330        4.9576784230       10.7083118262
 Si        13.9489222166        3.2728538961       12.1612816071
 Si         9.9533586350        0.7729586211       10.8199259135
  O         9.7625097977        4.0168583272        8.6426823010
  O        11.8839158273        1.1813746316       13.4560230413
  O        13.5441179359        1.8204062864       11.5690927839
 Si        12.6049401968        0.6210572476       12.1024865651
 Si        14.1953542199        6.6652590718        8.4690236218
 Si        11.9593605892        2.5619602677       14.3110565538
  O        12.5815737827        6.6494116547       12.1028639666
  O         8.8148175626        1.0548100177       14.7050241644
 Si         8.9202731780        2.6472676282       14.4817252032
  O        11.4735667241        0.2270377236       11.0156973425
  O        10.4625209618        3.1510714342       14.4682930117
  O         9.1417827612        0.3814077619       12.1611034486
  O         8.3609572803        7.4041488321        9.2666565724
  O         9.1373789421        0.0903967931        9.5973633504
  O         9.9818618041        6.4254264279        7.5522645240
 Si         7.0336016732        7.6986851960       10.1190005791
  O         2.7487237731       14.9511254450       14.8023528635
  O         4.4062983433        7.6976918342       11.3265538124
  O         6.8653474903        9.7538048951       14.7932207918
 Si         1.2485156793        8.0981420196       13.1139707094
 Si         3.4840492624       14.6003201388       13.4065726924
  O         5.0320212041       14.4810981759       13.8455162486
  O         1.0183369886        9.1448953562       14.3137847456
  O         1.4118454258       14.2675739516       10.9418364536
  O         2.8346333497       13.2067801462       12.9068091563
  O         2.7578051868       11.1808112356        8.4932375151
 Si         3.8932154484        9.1191277234       11.8437721774
  O         4.0191506286       10.1524626027       10.6197464718
 Si         3.3660796871       11.4431620391        9.9289203415
  O         2.1170859751       11.7989158481       10.8667240930
 Si         6.1469487219       10.4683534409       13.5345650193
  O         4.7966462507        9.6865423287       13.0686861558
 Si         6.1757504242       13.4810356034       13.3155095065
  O         2.3586733091        8.8117993699       12.2063971484
 Si         1.6391887331       12.9541434411       11.8459403166
  O         4.4920325362       12.5974211931        9.7690406632
 Si         5.9919353513       13.0301092839       10.1915878265
  O         5.9804170485       13.4520627150       11.7280230720
  O         5.8960075302       12.0122317964       13.9279940667
  O         6.6105878180       14.2426286247        9.3550848927
  O         7.0049731949       11.8046031200        9.9901992892
  O         6.6942021533        9.2668575232        9.9880667711
  O         7.1640319210       10.4712095719       12.2836483591
  O         0.2882693386       12.5878807701       12.5962387993
  O         7.6353829310       14.0077993046       13.6994712400
 Si         7.4771844201       10.4649857398       10.7140326862
 Si        13.4565410928        7.8940052109       12.6392967840
  O        13.9311672410       13.1297213141       14.6641036330
  O         8.0136921204        7.4869672485       14.3253838874
  O        10.4648865249        8.8997249897        8.8178206583
  O        10.0744975311       11.5583213724        8.4919716454
 Si        10.3131447811       10.3628869557        9.5423863075
  O         8.4965780886       13.5429152482        7.6430632167
  O        11.5696321852       10.7754165991       10.4586996564
  O        13.3832238807        7.8712906245       14.2482688299
 Si         8.9506673650       14.9388588524       13.6593754518
 Si        13.9250792027       13.0369573831       13.0444926079
 Si        10.7555522590       10.4431584059       14.6134086815
  O        12.9132259560       11.9474942009       12.4394476300
 Si         9.4205109793        7.8460797689        8.1220091921
  O        10.8476203241       10.5521505476       13.0091452999
  O        15.0268733826        7.7965937645       12.2582029846
  O         9.5800165286        9.4257767617       14.9471678014
  O        13.5332606919       14.4719589808       12.4375401309
  O        10.2288163371       14.0816971363       14.1578633338
 Si         7.9458900918       14.7487367432        8.5897729136
  O         9.0522781408       10.2941398897       10.5392986173
  O        12.9170542207        9.2835291137       12.0491969639
 Si        12.0822794517       10.6515937945       11.9783462961
  O        14.1629633485        8.0966447553        7.7239660245
