216
14.985 14.985 14.985
  O         0.7806846201        5.3672137547        2.4236284009
  O         4.5944323630        2.8214795471        4.5202667439
 Si         4.4583496371        4.4444436498        4.2683397806
  O         6.5548016964        2.1796361966        5.9287550952
 Si         5.3915820793        1.4903661207        5.0871800675
  O         5.8562829612        4.9874755011        3.6719851718
 Si         1.9526466477        1.4400093042        1.9762878138
 Si         2.1507291847        4.5870919040        2.0794756275
  O         3.2104802704        4.6833873384        3.2802337045
  O         1.9474201969        3.0299897691        1.7276203651
  O         1.4941960024        1.0985964797        3.4960239567
 Si         0.9565729533        1.5271377826        4.9418386641
  O         1.1079444047        3.1200399267        5.1422690974
  O         4.1312706996        5.4556184488        5.5380879254
 Si         0.7461779585        3.9473059831        6.4684089008
  O         0.8631075038        0.7726877471        0.9951781861
 Si         6.7813132240        5.6016140012        2.5151903971
  O         1.7835514326        0.7825493320        6.0915755174
  O         2.7255376819        5.3257787742        0.7878776237
 Si         0.7032174187        6.9879374011        6.4546841622
 Si         3.7536939790        7.0441123142        5.6289772418
  O         3.4322141729        0.7921964575        1.7181688692
  O         6.0190834633        6.8832979891        1.9407826616
  O         0.5413921625        5.4615332829        6.0118782354
  O         6.1634944723        0.3931825813        4.1482997028
  O         6.9335316784        4.4507980528        1.3957081416
  O         4.3751247787        0.5577852458        5.9262387708
  O         2.2047919001        7.3422527042        6.0046802572
 Si         3.0684044066        0.0383237656        6.7015542389
 Si         7.8768789843        3.0032415977        6.2407887686
 Si         7.9250642251        3.5738282030        0.4918533442
 Si        14.5846479839        6.4366472213        2.1784088870
  O        14.3772728573        1.2408245023        5.1436477354
  O         7.9689611216        4.4472685113        5.4668033619
  O         8.2610330632        6.0861282574        2.9530735355
 Si         8.5758507351        5.8527686057        6.0696530442
 Si        11.6922374385        5.8879665581        6.4026856481
  O        10.6775835098        5.2999406013        3.1170711929
 Si        12.1935373955        4.9356920220        3.4862507683
  O        12.4654131534        5.4648070465        5.0155811114
 Si        12.3525288790        2.0302726932        2.2436369418
  O        12.3429234950        3.3510200159        3.1898767097
  O        13.1907402951        5.7019038318        2.4868206776
  O        11.0090953713        1.7993700840        1.3949143944
  O        12.6380716939        0.7724436524        3.2259832484
  O        13.5673933396        2.0436115266        1.1884378291
  O        11.7094142304        1.6568431327        5.4678678295
 Si        12.9021348258        0.7621749432        4.8217446756
  O        10.1488470972        5.5391334653        6.1665987054
 Si        10.3371625558        0.9829644562        6.0280185917
 Si         9.7782349107        6.5179186473        2.5995908948
  O         9.1329232270        2.0308922949        5.9269231742
 Si         9.5841362516        1.2090757208        0.9346482561
  O         9.9047140285        6.7938513935        1.0347965145
  O         8.5063289540        2.3388033031        1.3324825395
 Si        14.3939129581        0.9620628114        0.3242845038
  O        14.5955631916        7.1009699948        0.7082333315
  O         8.3548001957        7.2532743780        5.2448411416
  O        14.3579340117        3.4348755465        7.1005971284
  O        11.6976730431        7.4466133678        6.8639363234
  O         9.1375221422        4.5226775964       -0.0033093185
  O         3.9689442011        7.6411726361        0.5398107402
  O         4.5415762470        7.8959873689        6.7454101304
  O         1.5535959841       11.2286341542        0.7698590382
  O         4.2113944652        7.7235319715        4.2291505732
  O         6.6320954026       11.1549163247        6.7160962677
  O         2.8029606267       13.4313172843        6.5569682060
 Si         5.3358193024        8.1270947870        1.2005144028
 Si         3.9851469321       14.2449394750        1.6356628628
  O         4.6802443011       13.7232262903        2.9854826198
  O         2.6434952659       13.4143049613        1.4060366551
 Si         6.1445387352       13.8194388593        3.6560724586
  O         1.6488104621       11.9549200109        3.3605005265
  O         4.9920318424       10.3086732921        4.6904257974
  O         4.9127137440        9.2796711901        2.2737885843
  O         6.3245042550       12.5664926195        4.6747260842
  O         2.6404054035        9.6840621657        3.9023317394
 Si         4.1967293506        9.2725520692        3.7451826527
 Si         1.4555717229       10.7017942774        4.3337378672
  O         1.4879866795       11.2517005031        5.8507895063
 Si         1.4761521646       12.4178688070        1.8473186370
 Si         6.3774396361       11.0141593945        5.1243358017
 Si         1.6134652999       12.4087337263        6.9748119215
  O         5.1532048339       13.9672813466        0.5485801023
  O         0.2559438246       13.2734910635        7.2521805494
  O         7.3633617527       13.5757260588        2.6484041635
  O         0.0071374625       10.0044444503        4.1412809014
  O         6.3416354172        8.5896622610        0.0029157594
  O        -0.0080461619       13.0404356550        1.8046643246
  O         7.4995052211        9.9131875979        4.6015254254
 Si        13.7795493326       12.9806229446        0.7267508048
  O        10.9225146333       12.4136088147        6.4037960105
  O        11.9394454566       10.0692548028        7.1099879057
 Si         8.5066197915        8.8901140139        5.4002552137
  O        11.7782648044       12.5650442894        3.9731210171
  O        10.0071929578        9.4367239918        5.0586204603
  O        12.5875825762        8.8121324028        4.3660560287
  O        12.4038261234       12.4020994942        1.4028439309
  O        10.3781779885        7.8702251666        3.2025370018
  O         8.3506955696       12.6381778061        0.4610292070
 Si        11.0879479946        9.1459366298        3.8587436192
  O        14.7425575972        7.6516238528        3.2081099331
  O         9.8381696398       12.4037134974        2.4224539497
 Si        14.1911710360        8.6219759095        4.3575891402
 Si        11.3405086045       13.4346666441        5.2386213296
  O        13.5892622525       14.5219070426        0.2323632022
  O        14.6033503526        7.9614558432        5.7742370579
  O         8.1159286049        9.0467389728        6.9462699543
 Si        11.3618090560       11.9214259884        2.5699750878
  O        11.3055569608       10.3113684780        2.7490390348
  O         9.3683934155       14.8261230639        1.7188050315
 Si         8.7156383856       13.3710654810        1.8284698396
  O        10.1583236505       14.5805031721        5.1569827455
  O        12.7120301257       14.2760511181        5.4657304311
  O         5.7713681116        4.4535553334       12.7283824283
 Si         2.4461125119        3.8437286146        9.0661098201
  O         2.8079894158        2.4273869514        9.7495386637
  O         3.7492187068        4.7573674110        8.8843255583
  O         6.3194966742        5.0021854405        9.4344561690
  O         1.3212136418        4.5330820567        9.9903485438
 Si         4.8514101835        5.6680395191        9.6059172345
 Si         4.9578114247        5.8064269991       12.5840465763
  O         4.3699364617        5.7776453224       11.1154717376
  O         3.7299866470        5.8483076492       13.5746990842
 Si         2.6865048906        0.8319129907        9.6734406143
  O         6.4668763869        2.1064606616       11.7941137312
 Si         6.9424926409        3.3935172326       12.6686368461
 Si         6.7460277355        0.5289894336       12.0369944776
  O         3.2847450306        0.3769407870        8.2592140834
  O         5.8599738132        7.0995308568       12.8729846806
  O         1.8828354878        3.6707527703        7.5681825253
  O         7.1861753236        2.9605683314       14.1964437954
 Si         3.0325155710        6.5605027823       14.8084610738
  O         1.1658082260        0.3095338435        9.7616732264
  O         1.7759520391        7.4047343282       14.2945340042
  O         4.8348074449        7.1845401399        9.1308198290
  O         0.3878840107        7.0958731954        8.0365793913
  O         6.4772969392        0.1613753314       13.5966152213
  O         3.4335065041        0.1533489001       10.9278662195
  O         7.7197496409        3.3517720766        7.8009909029
 Si        14.9109188940        4.1652045498       10.7109380840
  O        15.1425961465        2.8022145316       11.5461196832
  O        14.4456145173        0.2291935043       11.7059343605
 Si         7.6918308471        4.7335814521        8.6239249558
  O        14.4323690835        5.3120208554       11.7184341325
  O        14.5974693058        1.6318209482       13.8659420681
  O         8.2656385113        4.1217509386       12.1028911069
  O        13.7430401346        4.0488605700        9.5961996396
 Si        11.9414078944        0.9606169120        8.4340208310
 Si        14.2352631185        1.7077332937       12.3112892761
  O        12.7237592105        2.1930512338       12.0880449815
  O        10.1387408135        5.8424545951       11.3236611889
 Si         9.4971040315        4.3687577280       11.0932929248
 Si        11.3641603230        1.7182092049       11.3814494643
  O        10.7596184299        6.1825676447       13.7268282657
  O        10.4586529779        3.0599776692       11.2279866829
  O        11.6257816793        0.9351785156        9.9984438123
  O         8.9178747997        4.5268080324        9.6142750766
 Si        10.8783815865        6.9161181968       12.2887642930
 Si        13.1753984357        3.7817437805        8.1150671860
 Si        13.9762886922        6.8550338227       11.7526989935
  O        10.8255836024        0.5373147005       12.3315427552
  O        12.2424779087        2.4985348209        8.1152359577
  O         8.1292678066        6.7884530720       14.1247529999
  O         9.3716838751        0.8590729179       14.3583700425
 Si         9.4680854589        6.0649057856       14.6758537735
  O        12.3711880508        7.0326575668       11.7081516548
  O         8.3366365836        0.3935447571       11.8543922240
  O         7.9538914543        5.9426156600        7.5700169327
  O        10.6290669424        0.5497800827        7.5694074160
  O        12.3371259385        5.0707637460        7.6331051917
  O        14.4350369502        7.4931173541       13.1254483091
  O         5.8396945202       14.4412207091       11.1794880654
  O         5.8467713977        9.4354036993        8.4323419235
 Si         4.5633144740        8.4827103483        8.2498683011
  O         4.3138424113       13.8210206675       13.1765671452
 Si         5.6868284201       13.8054325972       14.0320927184
  O         3.2095897755        9.2783000245        8.6685894204
 Si         1.9753582104       10.2343929069        9.1205386371
  O         3.5998879485       12.4947437265       11.2423669651
 Si         2.1118545237       11.8973215475       11.6615104127
  O         1.6429920250       11.3222313554       13.1209957385
 Si         4.2991303807       13.9407028628       11.5623395213
  O         1.1735709485       13.1958748516       11.4784647725
  O         1.9592005773       10.6178689887       10.6898631554
  O         0.5551346057        9.5161723539        8.8318482093
  O         6.7064722858       12.5746877028       13.5923335557
 Si         0.6850300503       11.0167707225       14.4050625618
 Si         7.0051425456        7.8657826069       13.6826280395
 Si         0.3042302396       14.2925797133       10.7023753542
  O         2.0285963723       11.6367688265        8.3316339036
 Si         7.1675226316       10.0553882703        7.7727698868
 Si         0.2539265885        7.8878528537       14.4348725390
  O         0.1634393596        9.4966439830       14.5053588810
 Si        14.6796275246        8.1677773002        9.0429691671
 Si         9.6899536834       10.2608515424        9.4170540098
 Si         9.4556953431       15.0172844758       12.9687328935
 Si         9.1072701245        9.6187319057       12.4238191326
  O        14.3531360533       13.4272777992        9.7452855086
  O         7.6668775155        8.9011944356       12.6402166413
  O        10.4659518714        8.9001518930        8.8911501982
  O         8.9681638303       10.8691499781       13.4924787534
  O         8.1856153871       10.5444794006        8.8988225354
  O        13.1109864828        8.4324895724        8.7999524487
  O        12.9493122965       12.3249798821        7.9597927793
  O        14.7458546719        7.5801815566       10.5350556445
  O        10.2172739249        8.4069712000       12.4968527335
 Si        11.7847675812        8.6717447479        7.9157388364
  O         9.2901346616       13.4269475207       13.1912856611
 Si         8.3226295574       12.3208186977       13.8815232225
 Si        11.5988904778       11.5742890064        7.5961267352
 Si        13.9432627336       13.5456345052        8.1965769928
  O        14.3626917219       12.0166717003       14.5176133348
  O        13.1925298728       14.9846517950        8.0447434956
  O        10.6218370687       11.4746843294        8.8869661122
  O         9.4503031252       10.2936762791       11.0072528071
