216
15.192 15.192 15.192
  O         3.9551925573        5.5337917995        4.1106202494
  O         2.5984648094        2.2318687579        2.0484183805
 Si         2.8045873543        1.0075920065        1.0316374378
 Si         2.3652006622        5.7106438720        3.9485425577
  O         1.8226881503        4.4143729257        3.1752171463
 Si         1.8331208120        2.8106416511        3.3468116112
  O         1.4376883297        5.8554928213        5.2733052976
 Si         5.1678944647        5.5014625229        5.1511061621
  O         2.6091359107        2.4547987652        4.7400459132
 Si         3.0417704943        1.4566665669        5.9527112510
  O         5.9461070921        4.0986184062        5.1572679597
  O         4.5971476105        1.0288446328        6.0079120739
  O         6.5688131452        1.5905646669        4.5118068734
  O         2.2264873332        7.0444767123        3.0689963751
  O         6.0960278080        6.8049021411        4.9157796983
 Si         6.0927432486        0.5282296204        5.6687047376
  O         4.4299731424        5.5310373179        6.5654354693
 Si         0.8857177408        6.2712299070        6.7298562999
 Si         7.1530786643        3.0988623518        4.8038107050
  O         7.2643553654        0.6981648854        6.8107622556
  O         2.1410099229        0.1410251766        5.6108690839
  O         0.2815037522        2.2926895336        3.3043141644
  O         6.8099443184        0.1637732390        1.5765361612
  O         0.3259744522        6.4931861365        1.4208941709
  O         2.8513439586        2.2252073731        7.4016377740
  O         4.2133358658        0.3830502052        1.4905068431
  O         0.0811958410        5.0713213014        7.4369584767
  O         2.1815571657        6.5805534814        7.6018587985
  O        15.1727590018        7.6064343432        6.7297675231
 Si        15.0748683379        5.2487860984        0.5257903557
  O         7.9064466658        3.8933890629        3.6344936790
  O        14.9438832159        3.8694004202        1.3545647243
  O         8.3021916884        2.8572167495        5.9280313909
 Si         8.3391887774        0.6109420810        1.5494446251
  O         8.6989335194        1.8079798485        2.5318009594
  O         8.8650807332        4.1729905579        1.2844208153
  O        13.3723198360        1.7407651734        1.5897509531
 Si        14.2278722021        2.8593758828        2.4015935119
 Si         9.0509002016        3.3621132396        2.6554743668
  O        10.5381816360        3.4131991475        3.2456079416
 Si        11.7968742697        3.4106620149        4.2521365488
  O        11.8706364668        2.0593800486        5.1454857915
  O        11.6202241245        4.6683615577        5.2287838199
  O        13.1589207018        3.5627707989        3.3944985988
 Si        11.9818700645        5.6051662884        6.4765119464
  O        12.9013562847        6.7929738149        5.8638624920
  O         9.8829588612        0.6387728171        6.1767420471
 Si        11.3214758927        0.5659752045        5.4416620518
 Si         8.6748732115        1.5287438326        6.7768419977
  O        10.6736559620        6.3280697420        7.1200082636
  O         8.1663379044        7.0577666308        6.4968297066
 Si        12.9852012409        0.3549524752        0.8520952476
  O        12.2583762529        7.1978387805        1.5775817270
 Si        12.1935534270        6.2130577529        0.2961307942
  O        11.1603663230        4.9918868788        0.4809043622
  O        13.6032326977        5.5465554069       -0.0059532406
 Si         9.6295199929        7.5567923964        7.0076512871
  O         8.6258477318        1.1104591642        0.0776565360
  O        12.7348230474        4.6755711663        7.5838923051
 Si         1.0797067084        7.6928056373        2.1565845128
  O         1.6590110701       15.1165015435        1.3522471395
 Si         6.6546155336       10.3245357042        7.2980147915
 Si         7.1964911314        7.8487382890        5.4503462899
  O         4.0186854485        9.8129145597        0.8003655170
 Si         5.4523552874       14.6045318772        1.1949111278
 Si         2.4481247484       10.1787997249        0.9763234666
  O         4.0252925018       12.4336658829        6.0954754743
  O         1.6586128064        8.7783002163        1.1125269855
 Si         1.2793205223       13.9631811982        5.4612473588
  O         5.4616435851       13.2906943022        2.1254575387
  O         6.0073967423       14.1316298618        5.3199838105
  O         6.2480759833       10.8324869323        1.7414612291
  O         2.1458892238       11.0800920974        2.3093952825
 Si         5.5407491249       12.5840400404        5.5640875256
 Si         1.0015323543       11.9596240243        3.0745047909
 Si         6.3241035872       12.0806985765        2.7614280997
  O         5.6213307062       11.7846857879        4.1764328466
  O         1.5843277557       12.9802788475        4.2005282654
  O         1.6593362690       13.1346421322        6.8016716738
  O         6.4081595065       11.7845771278        6.6583094181
  O         6.5680796104        9.1631265047        6.1717645339
 Si         0.5352631890       14.0608262601        0.9153011846
 Si         5.4831930984       10.3664685202        0.3912304579
  O         0.3166621120       12.8974562234        1.9802598356
 Si         3.1443110374       12.8839296129        7.3576084257
  O         0.0719068739        8.4025354140        3.1763554249
  O        12.8117376638        8.7046016676        7.5907084212
  O        10.1272138165        8.6271687719        5.8536612279
 Si        11.7685133436        8.6396529772        2.1205581930
  O         9.5656428423       10.5907851092        4.0401143187
 Si        10.1319264890       10.4483779298        0.1914257993
 Si         9.3382363560       11.7242956903        2.9094734824
  O        13.8394254739        9.2504156243        5.2231837927
  O        14.8899493733       14.3219441630        5.4714375568
 Si         9.6273032394        9.0037308275        4.3414450802
 Si        13.6810699963        8.1184660705        6.3575720266
  O         9.3368407787       14.6277946864        1.9697389718
 Si        14.2832242110        9.5527459119        3.7020309677
  O        11.2339792759        9.4925491563        0.8645314680
  O        12.4215600865       14.8682064348        6.2523052902
 Si        13.9339234345       14.5475090840        6.7656841067
  O        14.3231475999       14.7288722293        0.7061443401
 Si        10.7415380710       14.2925192166        2.6836044366
  O        11.0055181357       15.1062570205        4.0220136493
  O         7.8808428300       12.4155698828        3.0810364888
  O        10.5890775813       12.7365570142        3.0772469680
  O        12.9709464646        9.4973692496        2.7688966884
  O        11.9385208200       14.6417224752        1.6725154165
  O         8.1360405940        8.3724389114        4.2266236941
  O        10.6161026442        8.3814179135        3.2319202737
  O        15.0375578246       10.9837707826        3.6482780231
  O         9.3414668578       11.1551455008        1.4024504116
  O         6.4768757217        5.5494695642       10.1226928980
 Si         3.3067902672        4.1316643494       11.4205521994
  O         4.3536251169        5.3821009734       11.5497396417
 Si         2.2569201942        1.9270338494       13.1875833474
  O         3.4040276517        2.8364625912       12.4312359426
 Si         5.0083095527        6.1992765823       10.2915150714
  O         1.7519230604        0.7284143514       12.2017404943
  O         1.8949650884        4.8106492221       11.8788439686
  O         3.4877615189        3.5688668260        9.8927593834
  O         1.8178251479        1.8182586791        9.7366524425
  O         0.9523182134        2.8560422867       13.3646225470
  O         4.2865777160        1.1237771440        9.3422493793
 Si         3.1690628231        2.2593116503        9.0056929242
 Si         0.7825252001        4.4243363975       13.0000559230
  O         4.1102278453        5.7813483059        9.0488008868
  O         6.4876472664        3.0896887987       11.3077804175
  O         0.8752827843        5.1511772553       14.4442235424
 Si         1.4603161923        0.5296511346       10.6197575455
  O         2.7703330644        1.4188886540       14.6405115795
 Si         7.1690719752        1.6044967821       11.6000102355
 Si         3.7607978758        6.4469421945        7.6599097000
 Si         7.3538952048        4.4441217540       10.9044995307
  O        -0.0937615003        0.4743708164       10.1403506386
  O         6.4851785960        0.1403434844       11.7207998172
  O         7.9096182158        1.9723987791       12.9712911701
  O         8.1499934227        1.3391385895       10.3608137337
  O         7.9944701119        5.2990093453       12.1154930478
  O        14.5643521396        4.7497572467       12.3524742355
  O         9.8175516574        3.2283070997       14.2335191720
  O         8.5516554128        3.8839591688        9.9678674107
 Si        14.2822217126        1.3686830761        9.0110530538
 Si         8.6983386264        6.4762587660       12.9614056596
 Si         9.1577909845        2.4051675540        9.7154296618
  O        13.9308967015        5.1533181413        9.8139391463
 Si         9.1554288463        1.7801318594       13.9399505977
  O        12.7470941599        1.4187842273        9.4999810235
 Si        13.3750408060        4.8356978864       11.2959431138
  O        10.5232183533        2.2216547953       10.5188036509
 Si        12.0639692509        1.9706022392       10.8479191679
  O        12.6587643793        3.3945005378       11.3086768977
  O        12.4102500298        6.0200127045       11.7855580977
  O        10.0583865291        7.0327059205       12.2651096606
  O         9.0202781879        5.7830557739       14.3931370014
  O        14.6302142668        2.9268404186        8.7065667183
 Si        11.6380722061        7.1676605478       12.6065534593
  O        12.3269106519        0.8439101172       11.9678845024
 Si        14.1375713187        4.4333285390        8.3799994382
  O        11.7761260700        7.0381155160       14.1931367208
  O         9.2573026119        2.0592232112        8.1675280597
  O        10.1428678484        0.7115465878       13.2829834057
  O        12.4094357721        0.5593945189       14.5582362220
 Si         9.7055182874        4.5504224649       15.1620312999
  O        14.4104399507        0.6455264271        7.5918054340
 Si        11.6310763424        0.1063006232       13.2223086314
  O         4.4351478744        7.9050379744        7.5998760431
  O         4.9849631152        7.8508607942       10.1911344274
  O         3.0872771247       11.8791669494        8.6128013640
  O         5.6300511657        9.9678948480        8.5353429465
  O         3.7974443672       14.2410999052        7.9148200712
  O         0.7044198623       10.9995876769        8.3011891545
  O         2.5288974272       14.5556727529       10.1969219504
 Si         3.9749331237       14.7299046155        9.4358360242
  O         3.0279294428        9.4120088180        9.1015079149
 Si         4.5365292958        8.8296148412        8.9194870606
  O         1.5983116849       10.7579386501       10.6781038294
  O         3.2077799917       12.8985255239       13.6093395279
 Si         1.7422688245       12.3094972216       13.9403431087
 Si         4.7889982753       12.9593936446       13.9036543313
  O         5.2100170571       13.9147358021       10.0500984305
 Si         2.0881162111       10.7252860793        9.1470539710
  O         0.7980717184       12.0986681459       12.6559557207
  O         5.5301057142       13.0572780776       12.5082232877
 Si         6.2475773659       13.7660082479       11.2790774981
  O         5.2283251679       11.6260053095       14.6400836766
  O         6.4118600640        9.3535590074       14.7253552497
 Si         0.2560668333       11.3463797568       11.3541877764
  O         0.9581247584       13.4513028875       14.7120501059
  O         1.9041681421       10.9913262068       14.8717639982
  O         5.2937702199       14.1787380811       14.8341440828
  O         7.4291520042       12.6698440898       10.9244239434
 Si        11.0153520293       12.1568563952       12.9225995031
  O        14.3927498674       10.2017883910       11.7930001509
  O        13.2826705296       11.1530048016        8.2190646517
  O        11.5520369586       13.6848878908       13.0519869398
 Si         9.3149757441        9.8968233647        8.7937074275
 Si        12.3292997013        9.9286302871        8.5304933002
  O        14.7223113965       12.2653712750       10.2060557954
 Si         7.6981782386        9.2948494573       13.7275079485
  O         7.5909514092       10.4404547513       12.5646594031
  O        10.7930014671       10.4337786873        8.3925082426
 Si         8.3326159170       11.3943516934       11.4612800841
  O         8.8689680418       10.3803347732       10.2859040632
 Si        14.5917624826       11.9732633218        8.5958573485
  O         9.5834840583       12.1116297159       12.1842294378
  O         9.0732073586        9.5710232590       14.5426846355
  O         9.4313789140        8.2958445158        8.4565829544
 Si        12.8103399415        9.9102264520       11.5793771039
  O        12.2611825385        8.6248904911       12.3506254867
  O         7.7512095229        7.7800520065       13.1405179728
  O        10.8384329551       11.5368998392       14.4111697159
  O        12.0254065159       11.2449736072       12.0424469235
  O        12.5712674347        9.4980180574       10.0499149188
  O        14.2513224656       13.3082950907        7.7583182662
  O         8.1601492278       10.4468361965        7.8325006924
