216
14.884 14.884 14.884
Si      4.955292687600004     10.329115122399996      0.357471574799990
O       4.253526195199999      9.278087088499998     14.224152135499999
O       5.748585707000004      9.529356745799998      1.488647967700000
O       9.635897917200012     11.168126049899989     14.813555532899995
Si      9.655552288699999     10.636939428799996      1.462067533999997
Si      4.151535108400005      7.767067232000002     13.639478859400008
O       5.831348973600008     11.490108053800007     14.470316277200006
O       5.665048505000009      7.204979339900000     13.812384920400000
O       8.229257148100006     10.019039851700009      1.907638884699997
Si      7.099294926300013      8.851706018700002      2.019146150299996
O       7.250640479100019      7.531526615900001      1.082366403700007
Si      5.483079020300002     13.091293569999996     14.584381130500002
O      10.049171789500003     10.439693220300001     12.422977601200001
O       3.832236235800000     11.170315718099999      1.150203720699993
O       3.776416624599999      7.791509461200009     12.065969587999998
O       3.853087382800002     13.156561174600000     14.389669990000002
Si      6.876064273600006      6.590179984199997     14.699175353000008
O      10.292685056100002     11.914398906499995      2.235464684099995
Si      9.339691989300006     10.009648587199996     11.077917519400003
O       8.720561946200011      8.521567600099994     11.245165268399999
O      10.623093451400001      9.342958364599998      1.563282970600000
Si     10.547855563200001     13.493867929899997      2.518605273900001
O       8.130472981700002     11.020465579799998     10.754628317899996
O       8.288368930200003      6.466090314899995     13.900844591599997
O       7.249065925200007     13.548853243199998     11.319751793500005
O       5.907970982900004     13.576434690200001      1.180793813099998
Si      3.297947255600004      7.862711824800002     10.526264637299999
O      10.786338489900006      7.367547060599998     14.561288413300000
Si     10.796481540300006     10.996359167399993     13.700393753599995
O       2.970259327199997      6.878710510899998     14.390828732599994
Si      2.870683030600003     12.270658771899994      0.465365054399996
O      11.537790802500011     12.403943806799999     13.393118592300006
O      11.803193943700002      9.827296841199999     14.231545894299993
Si      0.864618763299998     11.004077077899993     13.357483266200001
Si     11.529830866800010      8.627922409399996      0.427123493199998
O      14.766020344400012     12.235633456800002     13.052643346000000
Si     14.822731787099997      8.369024137499999     12.483904318800002
O       0.041407383100001      9.603343343600001     13.551562504099996
O      12.860882973600003      8.186692421400004      1.241457239099995
O       1.863092024600004     10.849331847899997     12.089277924299999
O      13.438972823800000      7.635913572899991     12.088394073800002
O       0.953337809099999      7.211252733100000     12.896733523699998
O       1.707896186400006     11.430862358100008     14.638237731900000
O       0.375433316200002      9.009914204800006     11.082439631700002
Si     13.560632034700003      7.426058241299993      2.500029110099995
O       2.266873463100001     13.253313015399998      1.575562536599999
Si      1.464008283700004     10.124371193700009     10.706919919200001
O       0.090385689500007      8.098751017500001      2.885208244599998
Si      1.558520591300010      6.153487716099995     13.922158732699994
Si      2.790373619700002     13.468823346500001      3.081062307000002
Si      9.894341432900008      6.169230411399997     13.875071773900004
O       6.241449415200009     14.072453083099999     13.564703418000001
O      10.294596145900007      5.892764798300000     12.331603392000000
O       5.168338065000004      0.353909526799999     11.493514347700001
Si      5.745389624000001     14.275435066299993      2.621546793300002
Si      9.619679453700011      4.949024152499994     11.196321025899998
O       6.255557448600010      5.145880573599996      0.241008415699997
Si      6.573521804100004     14.752259054299993     12.133242620499999
O       5.768768561900004      2.650416488099999      0.737842727999994
Si      5.741997521299998      3.752358849100002     14.471312311399995
Si      7.489681898200006      2.802138757499996     12.018203787999994
O       6.741034308800005      3.323044952300005     13.318039759600008
O       4.266425165500003      3.737218578499995     13.809121363700001
O       8.805129288100005      3.732718189099998     11.902645679499999
O       7.568501082300010      1.169097102999995     12.159809019199997
Si      5.771500596100003      2.429835683899999      2.315425132400001
O       6.254549032700002      0.921245590299998      2.576494043799999
O      10.130456325700004      4.730019754900001     14.556354584800001
O       6.680409252500006      3.138968787299994     10.682865955600001
O       4.195247911300005     14.243762039099998      3.066992339300003
O       4.264511318499999      2.567627865600004      2.805732443899998
O      10.957162273600003     14.495823183099994      1.308550641600006
O      10.616252176000001      4.234288010600000      2.062039085699990
O       9.147773526500005     14.065477541300002      3.056323284400004
O      11.049065280099999      0.098630147299991     13.652317628300001
Si      2.696907326100000      3.388225374500010     13.791605646200001
O       1.945292834599993      4.724049363199995     13.292360730699999
O      14.766022175900002      3.643346491399996      1.406141525399994
O       0.286837263199995      5.799115601100002      0.005940930900010
O      13.687327725799999      5.887437907900001      2.078839909099999
Si     11.119139580600002      3.858881370999999      0.582750035999998
O       1.115275671299997     14.639890611199998     12.735591036400010
Si      1.566030731700000      1.057096449399999     11.889568076400000
O       0.213914777299998      1.657856362499995     11.245851898300003
O      10.880037016900012      2.255242497899996      0.337917691300007
O      13.846974891100000     14.479377131799998      2.490017923899996
Si     11.440612195200000      0.734357567699995      0.221609504500008
O      12.633314945300006      4.396700792999994      0.248123776900005
O      13.035300885199998      0.924051163500000      0.415487284599998
O       1.772768266200003      3.010451239999995      3.035288181699998
O       2.281787077700013      2.165069273600007     12.824296626699997
Si      1.176740572499998      2.734328947799987      1.566286035300003
Si     11.826044787000003     13.872252129899994     12.759439381400004
O      11.538467147300004     13.897810030600001     11.169457129600001
O       0.642727481299996      1.236658853899989      1.401864880299991
O      14.842243568900003     13.984560260300002      0.090104230500010
O       2.630642819600002      0.596384615900002     10.757266892200001
Si     14.320406164700007      0.228618731499992      1.107120467599996
O       2.268557826300007      3.065805139899989      0.428774610800001
Si     14.055498233500003      4.945800050300003      0.847025784100001
O      13.372122397999991     14.319683218000002     12.819158607699993
Si     14.777796506100003     13.807890779699994     13.379797649799997
Si      8.725313271000008     11.396413967999997      6.249362438700000
O       9.221077648200009      9.864682041499998      6.038710768500003
O       7.229364739500008     11.431812711299997      6.868667251500007
O       8.644749482000011     12.248986116599999      4.879886781699998
O       6.494668265600007     12.334627015299999      9.176831417700001
Si      5.958920053000009     12.013227465700007      7.692114712199995
O       4.843172780900003     10.839081572399996      7.769859704299996
O       9.789106137500008     12.162167065699999      7.207692558499993
Si      6.393791348400008      7.275161336800000      4.602464007100000
Si      7.442000000000000      7.442000000000000      7.442000000000000
Si     10.030523534900004      8.549498864000002      6.569051196699998
O       8.959312723100012      7.354627340699997      6.864667497300005
O       6.583103847000006      7.866134481899994      6.118211646500001
O       4.848992378100009      7.046620637400000      4.217713490100005
O       7.817890812199995      8.215661143800000      8.848961972300003
O       9.064680612400000     13.070198948099998      9.579850434099999
O       4.426567780000003      7.458968989299994      9.440580018099997
Si      7.715430253699999     12.486599928599995     10.216617277400001
Si      3.499289589800004     10.289960002799997      7.077031435099997
O       3.663452846399998     10.353963931700005      5.467251288599998
Si      9.914876616400008     13.379489492699998      8.264830537300007
O       6.490410968200006      6.288079680499997      8.099908383699990
O       6.994841867600011      8.354337662800010      3.554233576499997
Si      8.039902992400012      7.431424927699998     10.283345257700001
O       6.574352308000007      6.879631294299998     10.678505437199998
O      10.537087535200005     10.026512094299994     10.008502500300001
O       5.330783776500001     13.386153478799999      7.040390800399996
Si      5.610870506600001      6.374255292099996      9.476326487500003
Si      3.483904828900002      6.246462010499997      4.461088851400000
O      10.967885608300007      9.017410423699999      7.775751787099995
O       3.100280246899999      6.459575559999998      6.021407710299993
O       3.023285561599998     12.002669067099999      3.654630810600000
O       3.027152223999998      8.773081868399998      7.355411286599994
O       2.119305794400006      6.786900376099995     10.340666433499999
O      11.038677178400006      7.878048261399997      5.541792858999999
O       2.351491961699995      6.880237262700005      3.490158003999999
O       2.290062767800006     11.260078066300002      7.540925393499999
Si      2.478975058900001     10.742531647399993      4.436532574099996
Si     11.688575378700007      9.278820120699994      9.175754484700001
O       1.199820283700006      8.117085168099999      5.452596677700003
Si      2.152146994200002      7.594672572999990      6.673166261599996
Si     14.106267052799996     11.377099686499994      9.014873594000001
O      13.021901380900001     10.186750607699995      9.093066752500000
Si      1.034842179800002     11.829132661199997      6.708168361399991
O       1.119826135399997     11.094736807399999      5.269517043300006
O      14.514461187999999     11.590385071599995      7.458111596000005
O       1.284352926200004      6.950364689899997      7.835242235399999
O      13.518643775800003     12.680322220899997      9.759917272100001
Si      1.388470517999998      8.140568518599995      3.820530705199997
O      12.777972232500010      7.372832749399997      3.887883172000002
O       0.634025009000009     11.091050256499997      9.747912954200000
Si     11.832140842000010      6.633570207100000      4.943744952400007
O       2.122919021199998      9.525968550600007      3.464191248499995
O      14.489959210300011      6.785850115399995      9.696073766599994
O       1.279524164800009     13.397906388599997      6.460877274899995
O      12.108174732700004      7.871172234400010      9.840253997700000
Si     13.186734223500002      6.969247623599999     10.620176934299998
Si      1.054727567199993      6.267553581999998      9.267022192899994
O       2.773922627999998      9.361205838099988     10.165242094900002
Si      8.167046261000007     13.667495993000001      4.266132140299995
O       6.660928072400003     13.509379637099999      3.715829660400000
O       8.878439046400006      3.971002706200000      4.213153855800003
O       4.994636175600002      4.924188231999999      9.763343587100003
Si      5.526950514500005      3.416851209699999      9.629957607500003
O       6.579261363400008      3.477501085399997      5.616620893600004
O       4.594626747400001      0.004736626399998      9.007914235900003
Si      4.773896693100005     14.878468205999997      7.403577996899990
O       8.307895752000009      0.009866423700002      5.303818567499999
O       9.299913566100001     14.731973881099998      7.685573161699992
O       5.831978814300008      1.086589055399994      6.848561835799994
Si      6.677628093100004      2.467621991200001      6.878181098300001
O       8.236999227000005      2.074442013600009      6.946092888999997
Si      9.112618619800001      0.825413499599991      6.440771005200002
O       6.164286428800004      3.240099094400001      8.176512597600002
Si      7.292901382399997      4.215280594900005      4.355807297099997
O       7.076164822200008      5.809096269500003      4.471808699600000
O       4.328372245100010      2.395852615599999      9.934373445000000
Si     10.352386477700003      4.255921581100008      3.635492019399998
O       3.337881695000004      0.429961015899996      6.796299907000001
Si      4.169906300300003      0.828782858400000     10.318680432099999
O      10.551299841400001      1.331864180800004      5.954329196899998
O       8.888205861600007      6.048018018899999     10.243978653399992
O       3.597200674500002      4.695174127000001      4.126634408100004
O       6.655482997300005      3.559534101200004      3.035401158899999
O      11.719787210400003     13.575501086499999      3.648665544000005
O      11.456626246699999     13.655474205599999      8.599991234399997
O      14.838477086099996      2.322704982100005      8.760458896999996
O      10.630936434500013      4.143166098199998     10.245081056400004
Si     14.032734214600001      1.791761446799991     10.043918373300002
Si      0.762325601400008      3.528727732400004      8.070802761099998
O      12.607486030900009      2.985016685500000      6.291530121400001
O      12.620414931000003      5.708921724999996      6.030703273900002
Si     12.194267508400012      4.244246676400000      9.934050784400004
O      12.694389148100008      5.468397358200001     10.841414691799997
O      12.937214600700006      2.904855659300001     10.420557286099996
O      13.276852012400010      0.410606107300001      9.687823823599999
Si      0.778618159100013     14.358761684800001      5.280021706699994
O      14.681999770800005      4.311089969899996      7.022005709400002
Si     13.065492128200010     14.444895572199993      3.889036096499996
O      10.782854136700006      5.687449847399993      4.199931886299999
O       2.029766173100004      2.820340602399988      7.363541932899992
O      14.148587037399992     13.899386643799994      4.957344860800003
O      11.286151779400006      3.073695990399997      4.132583189700004
O      12.691991379800008      1.009655943200000      4.469155066400003
Si     11.787912568600003      2.075295614700007      5.253079177799997
O      12.445483345300008      4.553959747400004      8.371661008399993
Si     13.069886227200003      4.409969094499996      6.891730869000003
Si     12.464904943000015     13.904382011299996      9.827756453500001
O       0.964880368800006      0.996156406499999      5.798494721599994
O       1.701441457300003     14.237174033900001      3.962739771699998
O       3.184105670400001      2.332274453000000      5.128792960600002
Si      3.184022289799998      3.180990376000004      3.785524317800003
O       1.194632236899999      4.649683372999993      9.162747029500004
Si      2.368671332900004      1.637216862199995      6.309482093300005
