216
14.89 14.89 14.89
 Si         1.6154518469        1.6786319728        4.7290128696
 Si         2.9782271997        1.8595216499        1.9481609367
  O         2.1545882211        1.4093857062        3.2454199220
 Si         5.4638943770        3.5842068469        2.7072686987
  O         4.4465166784        2.3821732401        2.3876866392
  O         2.7266196458        1.0678157327        5.7058566657
 Si         5.2762706961        6.3268984093        1.6341095269
  O         5.7098961649        3.6410125274        4.3030078496
  O         4.7210552011        4.8750719155        2.0714139848
 Si         6.6908972848        4.2226230993        5.4587491000
  O         6.9473273926        3.4783581499        2.0713003197
  O         1.1568169341        3.2296513181        4.9706334545
  O         2.0552551995        2.9058374701        1.1528368473
 Si         0.8274219424        3.9123863288        1.3244383615
  O         5.7983082338        4.1431554970        6.8013614384
  O         0.3116370422        0.8307996275        5.0469632978
  O         1.5771486765        5.2967106347        0.9105294959
  O         6.3665081110        6.7017931727        2.7367296830
 Si         6.8779406011        7.0631166282        4.2113999969
  O         3.1445150940        0.6695242751        0.9080322404
  O         7.1143965647        5.7162574930        5.0513871813
 Si         0.9839575051        6.7167783132        0.3994437288
 Si         3.2511279867        1.1368023458        7.2057970308
  O         1.5802631973        6.9553626652        6.1935782118
  O         5.9478839157        6.2126092155        0.1652151789
  O         3.6415982861        2.6553746591        7.3656146500
  O         0.0848884445        3.5535742779        2.7334072888
  O         3.3810836018        5.1372387985        7.1890052396
  O         4.1262585151        7.4354908963        1.8263109229
  O        -0.1675543569        6.8700343181        1.5680995426
  O        14.7241030104        5.5589381889        4.1299554449
 Si        14.5505043230        6.8868937814        3.1989269417
 Si        14.7381117667        3.9511351942        4.2910358100
  O         8.1067793048        3.4666811917        5.6191025546
  O        14.3921066891        3.8879977277        0.4080055450
  O        10.7625949869        2.9768705210        6.2826154008
 Si         8.4056224670        2.8011985104        1.9867907772
  O        12.1508511481        4.5437171091        1.9796058528
  O        13.4080183372        3.4737861691        5.1256923421
  O         9.6923369896        3.5664558011        2.5655634721
  O        11.2529503322        4.6335408050        4.4578390370
 Si        10.8221465576        4.6617742074        2.9205784461
 Si        11.9476430577        3.9702276054        5.7283039957
  O        10.0842892509        6.0457292777        2.8092992239
 Si        12.8215806181        3.6873224559        0.7664546728
  O         8.3497535376        1.4135520261        2.8043683587
 Si         9.1766213112        2.7225209076        6.5916619811
  O         8.9330298156        1.1445986937        6.3725618822
  O        12.2543515891        4.9636000362        6.9669607660
 Si        12.0198222731        0.6837344645        0.9395076130
  O        12.5841910720        2.1580633507        1.1619483669
  O         8.6875595675        2.5676233829        0.4331458321
  O        10.5883594860        0.5883078685        1.6531049333
 Si         9.4698648655        0.2647922566        2.7517546608
  O        12.6479692114        0.3999468315        4.9729330132
  O        10.0966596256        0.1552674773        4.2301279878
 Si         9.4254452962        7.4791003972        2.6926577857
  O         3.8891279407        7.5936215492        7.2034533362
  O         0.8214593746        7.8559507200        3.8068948740
  O         2.0034394991        7.9589640939        0.5161196905
  O         5.8676071111        7.9365908735        5.1318482838
  O         3.3249953779        8.2702946004        4.7965643609
 Si         1.7316087585        8.1507972771        5.1028702769
  O         1.0028177810       11.9896734207        6.6058172547
 Si         3.1881584194        8.6507291339        1.3748117751
  O         1.7373703537       12.0851401936        1.3889987479
  O         4.7938357750        9.8395562057        6.5266563305
 Si         4.5119877980        8.3830044794        5.9098730972
  O         3.2254730248       11.4934729957        5.2975217012
  O         1.3248872059        9.5898463824        5.7202142822
 Si         1.6557286310       11.1429992592        5.3964832841
 Si         1.4451707625       10.8509509987        2.4072135478
  O         1.1534411411       11.4169756418        3.8848535673
  O         5.8581860543       11.9034076145        5.3894747206
 Si         4.5739301238       11.3891457705        6.1644607406
  O         2.5743822795        9.6817239592        2.4712673850
  O         6.5268164144       13.5654151163        0.7595966108
 Si         7.2641129222       12.3545999116        4.8088556270
  O         6.9532463603       12.4154574494        3.2207030413
  O         4.1324710696        9.5958987192        0.4877598347
  O         0.1617211447       10.0902984825        1.8099950673
  O        13.0216498042        7.3472100369        3.3866564301
  O         7.6162298724       13.8206043675        5.4641353324
  O         8.9465594799        7.4572525479        1.1432870011
 Si         7.5678577330       12.8844188999        1.8070182463
  O        12.7491256155        9.7630168206        7.2907543962
 Si         8.0753667012       14.7306473347        6.7514316707
  O        12.5660638373        9.5125282624        1.9885015978
  O         8.7767209977       13.8284031265        2.2349321364
 Si        11.3655005078       14.3082860695        4.8746524422
  O        10.5833455495        8.5200413591        3.0665889024
  O        12.4864733060        9.4378471429        4.6913458377
  O        12.3353474735        7.4429200061        6.4398457661
  O         8.4353176415       11.2450248736        5.1368432843
 Si        12.1540859390        8.7005032789        3.2881031544
  O        14.1366862485       13.8062471551        6.5282459058
  O        10.1839959481       11.5009984703        7.0334189385
  O        14.2891012377       13.6442548758        3.8081167194
 Si        13.5830015087       10.5289114562        1.3456095017
 Si         9.2491427114       10.4307150765        6.3014985879
  O        13.3171297537       12.0028102281        1.9094055869
 Si        13.0883461139       13.3242233176        2.7631778035
  O        12.9782008099       14.4971163488        1.6544713461
  O         8.2775435962        7.7742973276        3.8113408253
  O         8.2682739748       11.6503373381        1.0696683453
  O        10.3393573880        9.2546866018        6.0354789825
  O        11.1585877021       13.7357021006        6.3739544141
  O        11.7647727026       13.2136187809        3.7217312950
 Si        14.1093888937       14.5938315513        5.1189950154
 Si        11.9467487479        8.9856782715        6.1462635304
  O         8.9220045876       13.7383818698        7.6846356009
 Si        10.3199500734       12.9987090032        7.5553052426
  O         4.7205051952        3.9644861023        9.2102624360
 Si         4.7715531978        2.7569440578       10.2977684913
  O         3.3185521084        2.3172145708       10.8366642888
  O         5.6220488303        3.3854786495       11.5022635136
  O         5.4569774753        1.4134838136        9.6722714491
 Si         2.1224604129        1.5398503308       11.5959632778
  O         0.8195884164        2.4776788378       11.4991066134
  O         2.5672784385        1.2368178597       13.1357581033
 Si         6.4759617963        6.6110213669       13.5672264025
  O         1.7307004073        6.4405890804        8.6975162204
  O         2.2281598182        0.6608580614        8.3485968465
 Si         0.3527064119        5.9137632346        9.3959817006
  O         0.3423529087        6.4583116355       10.9239749878
  O         0.6642974854        6.6924447304       13.6750424403
  O         6.9497432807        5.3739355339       12.6398773079
 Si         1.0302300233        7.2504886369       12.1644859769
 Si         5.6477285682        0.2087291512        8.6133279057
 Si         7.0803669427        3.9381497368       11.8987950448
 Si         3.1573364236        0.2181296153       14.2589672700
  O         7.1204602538        0.7407631662       14.2265795617
  O         1.7429869381        0.1551571694       10.8303913099
  O         0.2436227013        4.3097675752        9.6852227415
  O         5.2083363879        7.2794125617       12.8197359344
  O         6.9758066297        0.4066462603        7.7675039501
  O         4.5413535103        0.2339662363        7.4406100877
  O         2.6530927707        7.2840917925       11.9167866279
 Si         2.6404712433        6.5448710923        7.3583721591
 Si         4.4206097192        4.0099531418        7.6265369666
  O         7.6876281774        2.9756243889       12.9947505827
 Si        12.5580086592        6.3953562605        7.6556890910
 Si        14.5436307691        3.4216246078       10.9246434841
  O         8.0252926461        3.8078797091       10.5912986270
  O        12.1564582499        4.1386786984       14.2658580140
 Si         8.2285125312        1.8635050349       13.9692381713
  O        14.0011161056        4.2324679991       12.2333339399
  O        13.9908682633        6.3639433246        8.4392210125
  O         8.7675306579        3.2316821826        8.0743141529
 Si        12.5566838011        4.6843942958       12.8062260041
 Si        11.6948788343        2.6828784896       10.8992809738
  O        11.5808387425        1.3241093573       11.7423697819
 Si         9.2153687159        3.8406496097        9.4967078897
  O        13.2230522892        2.6606432339       10.3353440146
  O        12.4091202651        6.2756991256       12.7392638046
  O        11.4897618895        3.9842758656       11.8293298891
  O        10.5019672257        2.8954633766        9.8416609762
  O         9.5185192010        5.4175504553        9.3554939995
  O         9.5252046538        1.2397797823       13.3165529071
 Si        10.9038191997        0.5464068608       12.9643687458
 Si        10.1209773063        6.8874167632        9.5977924374
  O        11.5007212018        6.8708211533        8.7724797613
  O        11.8992150505        0.4875085008       14.2349098432
  O        10.4354357989        7.1891849233       11.1500401287
  O         4.7054522057       14.7904901931       13.9780826933
  O         2.6329374700       11.3252896319       13.9865279248
 Si         4.0608407335        8.1004846598       12.0362494465
  O         5.2785299631       11.3265508699       13.9174898229
 Si         1.8857644247       14.3478480329        9.3793667110
  O         3.7227425296        9.4374952585       12.8275558201
  O         5.5423586087       13.6526326880        9.3473269511
  O         2.9897486782       13.1704296720        9.5072704908
  O         6.2025414416       10.9051402326       11.5673903659
  O         4.7198070992        8.6865977254       10.6752632770
 Si         5.6080922896       10.0129122339       10.3543997397
  O         4.6359750906       11.0934391335        9.6590326254
 Si         4.3913201106       12.5430617718        9.0228262290
 Si         6.4757666307       11.7081264302       12.9162114710
  O         6.5382733379       13.3234395900       12.9806185448
 Si         3.9529760581       10.4402135007       14.0323500978
  O         0.5813508088       13.6440917830        8.7676162452
 Si         6.2142864524       14.3134957855       14.2283438117
  O         2.2275597498       13.8157832701       14.2331460982
  O         6.8590373361        9.4396406339        9.5167750656
 Si         1.6722148547       12.3963783286       14.6766829730
  O         0.1817783066       12.3172212548       14.0676148349
  O         0.3276354362        8.6869550786       12.0050481998
  O         4.3785750218       12.3173903241        7.4429275875
  O         7.7612479733        7.6027895993       13.7290890408
 Si        14.8458357271       12.7812064264        7.5584754715
  O        13.4044689480       10.4375125121       14.6387410952
 Si        11.4348268269        7.5068561351       12.3780025995
  O        10.6773633721       11.5975838465       11.5821917249
 Si        13.8776794600        9.3752785692       11.4276174417
 Si        11.0101453367       12.4874939469       12.8872868798
  O         9.2666821205        9.5953999563       14.8047946505
  O        13.8880026601       11.7515699435        8.3447173129
  O        10.7636330939       12.8224234962        9.1089775367
  O        10.5187256587       13.9574177489       12.4967746001
 Si         8.9344401343       11.1217560795       14.6072638403
 Si         8.3564945548        9.4756057401        8.9388491472
  O        12.5647662480       12.5722153492       13.3081393685
  O        11.7522627658       10.5063554057        9.5143093512
  O         9.0974762009        8.0389204603        9.0977993331
 Si        13.7801200738       11.5431718561       13.5090033000
  O        10.4337570656        7.6915247837       13.6493861641
  O        13.9720938673       10.8467780385       12.0769606139
  O        10.2629303491       11.9281652310       14.2062035165
  O        12.4814975201        8.6798901564       11.9224598998
 Si        13.1337820092       10.3800250563        8.7214610644
  O         7.9171752103       11.2314718358       13.3870140863
  O        13.9886758757        9.5000605849        9.7950633674
  O         9.1774753518       10.6683467550        9.6758014152
 Si         9.1088814829        8.0383772391       14.5297931935
 Si        10.5579871198       11.4495427431        9.9832295784
  O         8.1909047306        9.8401583833        7.3647291196
