216
14.878 14.878 14.878
  O         3.2342525705        3.1366752455        3.5603015700
 Si         2.1261090441        4.2221092178        4.0077258993
 Si         6.6564418733        2.1968770193        5.6963677380
 Si         4.7069362006        2.6102823235        3.1389806014
  O         5.6967260774        2.2322159498        4.3773122843
  O         1.3346491942        4.9681177175        2.8020688486
  O         4.3903488258        1.3290355416        2.1574270821
  O         5.4399758629        3.8070423714        2.3248370098
  O         6.3572202273        0.9038877810        6.6070007932
  O         0.9772991715        3.4780032285        4.8754348198
  O         2.9665456278        5.1972675783        5.0097428643
  O         1.8903285831        0.8262559626        1.2399453824
 Si         3.3246190555        1.4677654071        0.9304102575
 Si         1.0546102728        2.8520056574        6.3672588623
  O         1.2326879555        1.2803758359        6.2117680366
 Si         3.0285051609        5.0126989048        6.6237172242
  O         6.7703446816        5.6276296327        5.6334035648
  O         6.2940183077        3.3910784158        6.7037979776
 Si         6.9205833405        4.2875497556        1.9113335911
  O         6.4418872169        7.1125553114        3.6457315632
  O         3.2199027779        5.7013359305        0.8349605344
 Si         6.1613683765        4.9697661926        6.9647047018
  O         3.1386296696        3.0593028017        0.8241593589
  O         2.3932034223        3.5470063035        7.0192045579
  O         6.8654198130        5.4481006043        0.8150038804
 Si         3.7856931128        7.1718985318        1.1737704066
  O         4.5490990755        5.2158802905        7.1810571613
 Si         0.3781030399        0.2829575349        1.1584089675
  O         5.1235422708        7.2718484048        0.3264689748
  O         1.9113317364        6.0437032610        7.1847425900
  O         3.9928020549        7.3751599838        2.7806536854
 Si         7.5092285368        6.0769917187        4.2869909287
  O         7.6845266800        4.8671141992        3.2219537116
 Si        14.7785340697        5.1942110431        2.0751339298
  O         7.6050853486        2.9947728586        1.2377611956
  O        14.7149879602        6.1106842074        0.7367283417
  O        14.2151842902        1.2476207749        1.8972918728
  O        14.2161923615        3.7909303246        1.5589324648
  O        11.3405212998        5.1675993388        2.6663448685
 Si        13.2734457033        2.5148845576        1.7480427714
  O         8.6103369025        0.8230252804        2.2288584439
  O         8.2396406145        2.2289866604        5.2932611671
 Si         9.8268424439        2.3433242417        5.6266008449
 Si        11.0498232784        3.6574995465        3.1952410645
 Si        12.2803540247        6.4418049757        3.0699172685
  O        12.3835561362        2.7447674059        3.0663025965
  O        10.5023188794        3.4761950708        4.6975337928
  O        13.7948756242        5.8852520208        3.1545994661
  O         9.9374908626        3.0727898060        2.2296320313
 Si         8.9553710708        2.1521998726        1.3967210138
  O         8.9970916858        6.6121154305        4.6245074397
  O        10.5761638791        0.9138454533        5.5283559516
  O        11.7245505767        6.8582610192        4.5350787240
  O        10.0823743075        2.8073480662        7.1190782544
  O        12.3054495256        2.3108049531        0.4881123530
  O        14.5624053079        3.1296172228        7.1959260861
  O         9.6924089179        1.8188624716        0.0010652292
 Si         5.0433299011        7.9074157140        3.8894336339
  O         3.6421304769        9.9868040959        6.9516445078
  O         4.4839258343        7.8577533732        5.4486748709
 Si         1.2354510217       14.5678066746        6.3562630362
  O         0.9859960899       13.9568886040        4.8676719898
 Si         4.8183681933        8.9013284765        6.6769700427
  O         6.1161007034        9.7441827821        6.2094457055
 Si         3.5500232013       12.1656896925        2.1719391515
  O         6.0288169876       13.9888669097        4.8565388596
  O         4.9612765569       12.3982615176        2.8903645400
 Si         6.2448771375       12.9163834243        3.6868025007
  O         5.4529120906        9.4771417252        3.7111509961
  O         6.7849649740       11.6487373515        4.4794703192
 Si         6.5674657681       10.1051526991        4.7124599706
 Si         0.9502574283       13.1651229737        3.4429623580
  O         2.4825970351       12.8181326124        3.1495656346
  O         3.0535776777       10.6560426530        1.8129343530
 Si         6.2628370938       14.1889282889        6.4368478380
  O         3.6441279169       12.9070498044        0.7445208907
  O         2.8896229826        8.3653395026        0.5784981677
 Si         2.5630564756        9.9355576242        0.4288096593
  O         0.3371197327       13.8887572238        2.1367654586
  O         7.3820890158       13.4633817597        2.7157180327
  O         5.0553022026       13.4744187537        7.1944670994
  O         2.6278125757       14.2256458766        7.0993109502
  O         0.9924695389        9.9206952514        0.0781123499
  O         0.0923143774       14.0470081194        7.3533612011
  O         7.5926851754       13.5666134437        7.1067685373
  O        12.4852801640       14.5486777164        7.0181348586
  O        14.9600917572       11.8173080632        3.4636836981
 Si        10.2934130070        7.5460680615        4.8794284341
  O         9.9006432840       11.3128910975        3.9477881746
  O        10.0994020744       13.9691201724        7.4411357310
  O        10.9994458463       13.3172224687        5.1363870012
  O        10.0642435242       13.5466276519        2.6288834670
  O        10.3172403508        8.0074908992        6.4255181833
 Si         9.2211820948        9.9299501076        3.5035370008
  O        11.7358817575       10.1783465185        6.6787831741
  O        10.2694007660        8.7527381050        3.8028524055
  O        12.3311185333       12.2278714246        3.3125309519
  O        13.1466910572        9.8213339247        3.1378691451
  O         8.0182470455        9.4936636252        4.4660918522
  O        13.7190847295       10.9961038875        5.3959642011
 Si        13.2307257920       10.7077459892        6.8853283444
 Si         9.6566538425       10.1243932214        0.6697860003
 Si        13.5156042945       11.2291208123        3.8219293201
  O         8.5162362921       13.8776190257        0.4260542002
  O        11.0775442893       10.0110743326        1.4062934638
 Si        10.8159092180       12.6123444965        3.7205619140
 Si        11.0574568483       14.4408446320        6.2644371505
 Si        12.4643352845        9.2850854050        1.7790366970
 Si         8.6635784291       14.1112009580        2.0114237067
  O         8.6785727484        9.9952165861        1.9711673999
  O        12.2422205518        7.6753943950        1.9859949289
  O        13.3876006899        9.8297569571        0.5790012610
 Si         5.3179318042        4.5873518170       12.5200819035
 Si         6.8655781790        2.5378497894       10.8519818749
  O         5.8744595184        1.4026689993       10.2536461432
  O         4.3017833993        4.2168679551       13.7134799995
  O         2.3987310780        5.9581162651       12.0768120106
  O         4.5505619315        5.0317857351       11.1507110209
 Si         3.2709323380        5.9368097712       10.7281907937
  O         2.2232274572        5.4585170856        9.5952523130
 Si         1.2613489421        4.9807748689       12.6453923568
  O         6.1963627228        5.7965502719       13.1519803906
  O         6.2120989734        3.2992365772       12.1292604556
 Si         1.1003590008        6.0825263674        8.5815432209
  O         1.7310247548        4.3749711238       14.0473256285
  O         0.8255416078        3.7990251145       11.6520337340
  O         1.7161843876        0.8318827169       12.8100582635
  O         3.8219855921        0.8229585833       14.4144774323
  O         4.0478638075        0.5772865420       11.8300502132
 Si         6.3915229930        6.5174012015       14.6002858167
  O         7.1149745823        5.5263697457        8.1747153343
 Si         3.1505444558        0.1872640073       13.0850239612
 Si         3.1366126249        4.3707170400       14.8104361128
  O        -0.0117277934        5.8708447939       12.9093051208
  O         7.2758834118        3.6417060728        9.7564164790
 Si         0.1625799293        0.4340203211       12.8915985914
 Si         5.0253121516        0.0864658765       10.6659123059
  O        14.7925803521        0.0824278087       14.4749309550
  O        14.6186110521        5.1949725482        8.6837444512
  O        14.2215454213        1.7201845168       12.3186933529
  O        14.1348962639        2.8187112015        9.8307908907
  O        12.2271346596        3.7994851113        8.3634146456
  O         8.2696040965        1.8185239676       11.1879792887
 Si        14.2761122517        3.0675555966       11.4242715256
  O        12.5665942463        5.7106911085       13.8932900392
 Si         8.1413904178        4.9260685261        9.2984081780
  O        13.0734375359        4.0320163580       11.8911243628
 Si        10.6634084137        3.3334477032        8.5045903366
  O         8.5069079903        5.9534919437       10.5008845013
 Si        11.9131906712        4.7175067184       12.7667817437
 Si         9.7240492555        6.5018896549       11.4279291414
  O        10.9106263725        5.4559287466       11.7355424237
  O         9.6568253950        4.5522105845        8.8408166078
  O        10.4104436479        2.1446061358        9.5907442270
 Si        13.8620762154        3.7499094307        8.5193860526
 Si         9.3697832781        1.0796161527       10.2623149101
  O        11.0700002687        3.5463407926       13.4754085262
  O        11.5611376660        0.9030524718       13.3039261455
 Si        11.1566113201        2.1405160962       14.2556389932
 Si        14.0306243739        6.3908391033       14.1658558503
  O         9.0980482873        6.9310185193       12.8354476503
  O        10.1613820706        0.0957082235       11.2265259622
  O         8.5851739401        0.1665076279        9.1721475229
  O         3.7928056157        7.3592148552       10.2472490431
  O         4.1334164029       14.4578053162        9.4119359374
  O         0.6667511711        7.6197068368        8.7699136850
  O         5.1231997907        8.1798422218        8.1041124360
  O         3.2965360495       10.8256370707       14.1321009500
  O         1.5381481055       10.1569387063        8.4330121645
 Si         3.0701834678       10.5740499960        8.3579796540
 Si         3.7895561663       12.3769532237       14.1070139453
  O         5.8816572705        8.6831503644       10.7374642758
 Si         4.7086907495        8.5206531632        9.6535767027
  O         5.9543067529       13.7882299971       11.3120226574
  O         3.8876525931        9.9071877500        9.5820572167
  O         2.9663522586       13.4568994174       13.2241525221
  O         5.2923951339       12.4799789633       13.5620808395
 Si         6.3312184652       12.5862050312       12.3387261763
  O         6.2816268670       11.1724247311       11.5753701581
 Si         3.7361042944       13.6110797623        8.0827740404
  O         3.2231823868       12.1525027722        8.5128939590
 Si         6.9753545003        9.7958000091       11.1340356220
 Si         0.3079163160        9.1944570765        8.8010275080
  O         7.3637037038        7.7714669077       14.4616368158
  O        13.2273992696       12.0906721687        7.7062603171
  O         9.5823731320        9.0096004032       14.3908749773
 Si         8.4975427032        8.2697265069       13.4636236809
 Si         8.7402305313       13.7466206509        8.2202299946
 Si        14.4544202016        9.4940394287       14.3138122381
  O        10.2495307457       13.4776362302       13.3958726922
  O         8.8417930695       12.3955266522        9.0929707403
  O        14.7930300612        9.5053013226       10.3326949365
 Si         9.0659273113       10.8134759044        9.2114327373
  O         7.9323875089        9.2571609533       12.3155389297
  O         7.7599916954       10.0851465089        9.7663489863
  O        10.2661719596       10.4823341777       10.2495149907
  O        14.2971605066       10.2505646247       12.8962176360
  O        14.0612565547        9.5866348930        7.6992697735
 Si        11.0437652064       14.4989078051       12.4630126172
  O        10.3300095569        7.8551395686       10.8295385772
  O        13.4736300827       13.9689182026        9.5012718309
  O        12.2299705819       13.6518295412       11.8305583306
  O        14.7262657783       14.0631855706       11.9069964953
  O         7.7854209447       12.8083304767       12.9899741521
  O        11.4787968766        8.6906418920        8.7618609864
 Si        13.5194979757       13.6653351276        7.9069623254
  O        14.1267357902        7.9652991667       13.9753636536
  O        13.7275529556       11.7846432019       10.9018815537
 Si        11.1464334882        9.1143336628       10.2956021384
  O        12.4037108843        9.4334724892       11.2363058981
 Si         8.9468946437       12.8970066078       14.1064691630
 Si        13.8043150806       10.2475883384       11.3626832968
  O         9.3374552741       11.4962881933       14.7930923338
  O         9.4280290988       10.0787203181        7.8248095040
 Si        13.5630381311       13.3746762801       11.0099456051
 Si        10.7234068469        9.1989087345        7.4185752971
