216
14.883 14.883 14.883
Si     14.853240061499987      9.050510602500005      7.292521148199993
Si      0.883444319299994      8.557446217800004      4.411353924800001
O       0.353967555799999      7.915284811600005      8.347743935400011
O       0.096437871299999      8.498884958100003      5.802745738000007
O      13.331661446299995      9.563939950499996      7.591229582199992
O      12.844802661699985     10.207018371500006      4.791053484199998
Si      1.012207991499989     11.802319111900015      7.356287104400011
Si     13.220282685599996     11.678259783500014      5.468956816700006
O       2.439886652099994      8.914136812600002      4.454309216400008
O       1.104804778999988     10.196343870800012      7.364618669299985
O       0.587353260499997      7.079478534800019      3.878319869700019
O      14.406544872199985     11.965310290500007      6.614689244100006
O       3.740914064899990      6.839657116000008      8.763468295499983
Si      0.280209765999992      7.354515990300007      9.848459175199999
O       1.349492029899990     12.132488481700008      8.945996060100002
Si      2.700410654999989     12.009188503300015      9.867557701599997
Si     12.172946054399999      6.685581492900004      9.785746782800004
O      13.759866577299993      6.583096204600003     10.010110598700003
O       0.349334060300005      9.735021942500008      3.473928151800000
Si      2.969338889700006      5.716096658500008      9.677163897800002
Si      1.203237097099992      5.663743314500010      3.473212064400002
Si     12.258007812000001      9.822004144000008      3.284725578400002
O       1.515675272900007      6.334712585700009     10.012330255599998
O       3.994705601099998     11.803946486300012      8.935402036299999
Si      3.974633942899995      8.773835682200019      4.866679630799996
O       2.191630140699994     12.625734677300013      6.602225874699990
O       2.684567175099990      6.028899675800012      2.974825029700000
O      13.758299233099997     12.539322651100013      4.226423491700015
O       3.993064464800006     12.696937601100009      4.715561064800011
O       3.820686660599996      8.335682423700007      6.434435655100004
Si      4.264533346999994      6.223356922200002      3.149440139499998
Si     11.789254608699991      9.299514909500003      8.039447871100002
O      11.769501648199995      7.911642024100010      8.839351040500002
O      11.769061345099992     12.208728101400002      5.955439054900008
O      11.937148632499985      5.755802775200010      3.464720429100006
O       4.632932785500010      7.534189569700009      4.048151995100008
Si      4.493906125599993      7.234219498600015      7.385795525500009
O       4.811205087500000     10.152484996500009      4.554885231700010
O       4.807910369100002      5.891074346900018      6.532055328000007
Si      9.336356051299992     10.185036044600013      3.404199033300006
O       8.532278938799994     11.551845645500025      3.310702316299994
O      11.344578748499998     10.575059428000010      8.934484841499994
O       5.923165060600001      7.918132144100015      7.681043229700010
O      10.692917880099996      9.147781187400021      6.867015828200013
O       8.451003159100003      7.491709485800010      6.197223574799995
O       8.121499716600011      8.750729705500014      8.192914907200013
O       9.281724499600005      9.401322886700015      4.794328880499996
Si      7.441500000000000      7.441500000000000      7.441500000000000
Si      9.806886034500009      8.291314301600016      5.823101144300002
Si      7.535033055600001     10.065578271200014      8.982373783500003
Si     10.195928495900008     11.710409242000004      9.121781524499994
O      10.764043526399993      7.108062006600003      5.292897317800003
Si      5.133981036099993     11.715675310400014      4.113836376200006
O       8.794611348500004     10.972302712300008      9.428099365700007
O       6.470959269200005     11.124561819200020      8.270642404100009
O       6.547880007699999     12.291034147700016      4.708174660200000
Si      5.416393259199996     12.378856122000016      8.456380171600003
O       7.212578528400003      5.770994406000009      7.506182679399990
O      10.017206990900002     12.612296656900027      7.811855821700013
Si      8.036589404399994     12.745133963400015      4.249717968000007
Si     10.896913920700010      5.617275913799999      4.690681480300004
O       6.886420631700012      9.318333778800023     10.232811999500003
O       9.117308443399994     12.866634078300015      5.446505941900002
O      10.855598313399998     10.564555002000006      3.137343467299996
O      10.594396709700000     12.792413532400019     10.263097333399999
O       3.243729556899987      0.066789109100011      5.946134588200004
O       1.175569853399997      4.527577434000014      4.625251379100004
O      14.007741371399996      3.377221944600015      5.779623448700002
Si      0.425592365800002      3.105053489199993      4.871180845400006
Si      2.971809151899985      1.667888256800003      5.913553030999998
O       1.438981716600010      2.036231741700004      5.535149170300017
O       2.980448191499994      4.328362736700019      8.847423094099995
O       3.234972879199999      2.290021295900023      7.350302869900005
Si      3.579193074200006     13.371650231000014      6.134085510299997
Si     12.439371104999996      3.325301573700007      6.119233842099996
Si     13.453623460199998     13.865480491700001      3.412312692100008
O      12.409486107900005     14.779072911300023      4.209541995800001
O      14.815282445900001      2.459969454800008      3.476536481299992
O      13.344030987599995      3.282370834800019      9.929411531500003
O       3.983715440299991      2.474131828300008      4.956840641799997
Si      4.019343624199995      3.160896208900013      8.413633821500007
O      14.817785379699997     14.687652605000016      3.230251430600005
O      12.258294601099998      3.193889003700005      7.682438609200013
Si     11.994269981699988      3.705690978000006      9.144832931199996
O      11.685000626400001      5.283593621300001      9.180829137600007
O      11.590097114699999      4.619242240000003      5.708214855699998
O       4.472296047500002      2.033106384700015      9.437098815300011
O      11.772933688899984      2.055197771800016      5.452880410600003
O       6.046861549600004     13.367196095400008      9.590667415800008
Si     11.247011941599999      0.636615846400012      5.026865915500004
O      10.738112143300002      2.937830712300014      9.785507955200003
O       4.899128557999998     13.190174291000002      7.116525777499993
O       5.414338139599999      3.866032090600017      8.010372399099992
O       5.647737522900005      2.533950232800021      3.136599449100009
O       9.939908462300011      0.885745471200013      4.140302593400008
Si     10.446669142899999     13.052905135600016      6.351479156100006
Si      6.008082195800009      4.837247957600013      6.872989178200005
O      10.853542976300007     14.609483861800012      6.292450603199994
O       8.038802068600003     14.121908474900009      3.389482818800000
O       6.223208091899993      3.869242407400009      5.562023922600005
Si      5.153936552199993      3.426656312900009      4.391103943800005
O       4.731724189099999      4.849949458500011      3.807869215100002
O       9.447091718300014      5.107257269700020      4.123701217100009
O       0.352454615499998      8.491131770700010     13.468809082999996
Si      0.899579694599997      8.288868986600011      0.077301270000007
O       1.006959082699998      6.728432014200002      0.332234436199999
O       2.334595927799997      8.903990100300005      0.499435574600017
Si     14.083016784799986     12.162931092900005     12.939326207800004
O      14.804981275799996      9.161480135300010      0.991702577999996
O      14.655730600699998     10.790589055700018     12.318727028600000
Si     14.456046966299988      9.185141517900011     12.248914623499996
O      12.849946558499999      8.900976274100017     12.306616519300004
Si      3.117515371100005     10.119249603600014     14.715263892799996
O       2.431420765799996     11.572717823100014     14.801163184600004
O       0.678089753300005     11.721430526000006      1.738844367000003
O      12.491705047400002     11.972733974300017     13.143141789199991
Si     14.755563702999995     10.352633995800030      2.075255134800007
O       3.067397519900003      9.728312558900010     13.170150547900001
O      13.178452841299999     10.574011457299999      2.216662439100015
O       0.259698395299996      8.576244241300003     10.912064532800001
Si      1.282258212600011     12.551729505700022      0.462825004800014
O       2.894120434299994     10.705432954800006     10.832318446800004
O       0.032510405699996     12.559093123700018     14.293262218200017
Si      3.959244806800006     10.258654702700023     11.968160258200003
O      12.167967427399985      6.180146519100000      0.897252080200001
O      12.010982859599986      8.252559687100010      2.807683766900007
O       4.568417668299991     10.237726543900013      0.493928811800009
O      11.427536206599997      6.995371549900005     11.170824705199999
O      11.265617529399996      7.332540401700002     13.731946088800001
Si     11.444713772899995      8.094406239700010     12.339767628999994
Si     11.553466154400004      6.769543515600001      2.275437824500008
O       4.816339515000001     11.544348867000013     12.409466368899999
Si      5.569240603000004     11.414438165400016      0.979005506300002
O      10.111968227899993      8.997462202200012     12.236956167200002
O       9.853782814300020     11.290843641800015     13.303833915500007
Si      7.827978038799989      9.411115921800022      0.980974143299994
Si      9.122921272699992      9.865845883100011     13.180362872500005
O       8.869564905899987      9.233965639900008     14.642250180000000
O       7.064814848399998     10.828774858400005      0.907855834200008
Si      6.658223134199996      8.894602032200014     11.749150049399994
O       7.052096076599998      7.396666356900001     12.254415669800000
Si      6.506584809099998      6.748116708700012      1.281524471800003
O       6.648064902899995      8.330844184700002      1.074351963299999
O       7.625994549800001      9.913033423000003     12.564262905700009
O       4.990860606299995      6.421990690600002      1.721643480800007
O       6.966987374499998      6.170427729499997     14.729214337500011
Si      6.909211473699997      6.016244444600005     13.122467355100003
O       9.944669851400020      6.506063448000012      2.055992127300011
O       5.055905973799987      9.077796090700005     11.825522837699996
Si     10.971655698900006     12.426424087900012     13.494371077399997
O       7.448811806800014      6.186256839700013      2.478763990999991
O       8.705462228400011      9.230401110400019      2.303509966900012
O       5.162473066700007     11.859651154200019      2.487420205700004
O       5.480422057599999     12.627854183500009     14.782360640000007
Si     11.515633913499995      5.868033863000002     14.316765740499999
O       3.659070859099991      5.280876642000000     11.069623481500004
O       0.356411900599998      5.100736483200000      2.230325054900006
Si      0.867265169199992      5.181639380600008      0.710712500800004
O      12.590886266200005      5.102369450499999     13.393414800399999
O       1.890782488000001      1.211347941300017      2.301658633200006
O      14.741391481199981      4.443496878700015     14.635550336900007
Si     13.555187911500001      2.412636862000011     11.254392581099994
O       2.229642872900014      4.362357820600010      0.576305866400004
O      14.322444571099977     13.387537897300012     11.908428343099995
O      14.408526387399993      1.051186763600027     11.081453023200005
Si      2.957520833000005     14.426053179700011     11.971840047699992
Si     14.800470925299997      0.009693453500012     12.263524085999993
Si      2.712065462000003      0.601145147400021      1.041692057399999
O      14.344809673899990      1.303315696800024      1.177960794599998
O      12.838351771199990      2.699910094200010     14.466779112800003
Si     13.312668600599990      1.207700218000020     14.839602618499995
Si     13.599377067699992      3.899637250000020     13.704920785000009
O      14.261283091399992      3.357937973999999     12.346670964699992
O      14.078974591999993      0.482128223800017     13.624910300399998
O       1.506710292300009     14.863197199100012     12.477607227099995
O       2.514645823799991      1.713939375300020     14.724102872100003
O       1.998292179199999     14.018703716300017      0.741412413600005
Si      3.118168110099995      3.246084273000013     14.742336641499993
O      12.838411010599996     13.459389176100004      1.982874356600001
O       3.833690176500003      0.817552656100020     11.570175401600002
O      11.994409164999992      0.377284963300003      0.335881897600001
O       3.741052763600000     13.777176707100006     13.228543981000001
Si      0.296724737999999      1.211443350500011      2.544619745099999
O       3.407552319200005      3.774108418400011     13.248509674600012
O      12.088616019799987      2.035003765899992     11.819999396599997
O       2.830348417600007     13.367111501400013     10.749884772500002
O       4.308547227899988      0.721803017000019      1.483128915400019
Si      8.858777767500003      5.415585665700012      2.628459672000004
Si      4.432166011699993      4.391360119800011     12.171075110099995
O      10.113855531600015      0.642401023700016     10.838099915000006
Si      5.010722972099988      1.679552133100022     10.887243555999998
O      10.197374226799994      4.936686347600008     14.216537927100003
O       4.403196529999989      3.207369763000009      0.827263769300007
Si      8.178134188699994      2.630957575600019      1.097390648300001
Si      9.234051676600002      0.213373332500007      2.869967131500008
Si      5.094971031199989     12.895441596800014     13.232516949700003
O       8.549042638799991      3.997494994200022      1.899840078099994
O       6.373176540899999      0.805104329800021     10.823123243399996
Si     11.548780386600003     13.932327876700008      1.148139097900005
O       5.466014865399997      5.415694517500007     12.816839730300000
O      10.437890721700009     13.697704156200007     12.640492542599997
Si      9.181442901700001      3.957453797800018     13.391906350500001
O       9.711793685300002      3.040525038100006     12.169810732099993
O       6.656246085599995      2.123533027200011      0.895907343299994
O      11.020213667199995     12.797751813300009      0.163380094199996
O       5.236124240500004      3.115294459500003     11.585257293000002
Si      6.726385976999995     14.102408540200013     10.874455677200002
Si      5.234822068300002      2.087998608500015      1.628290858400012
Si     10.603745723600001      2.138517447300001     11.182969637399998
O       8.053162981500003      4.937737871700008     12.744347941600005
Si      9.866089078100014     13.958140628400013     11.144794128200003
O      10.343669222800001     14.197750806300020      2.151725854900005
O       8.292851166999998     13.783901193800009     10.844772785099998
O       8.801534078300007      1.384145515300017      1.888931365800007
O       6.216222563699991     13.616955699000007     12.331740745599994
O       8.696187879199991      2.869530877700010     14.475531886200006
