216
14.736 14.736 14.736
  O         4.8993142504        3.5956267720        3.1139339101
 Si         5.6545814608        4.4434843365        1.9664346741
  O         1.9601553669        1.7998662755        4.8271365503
 Si         3.1661964941        2.2105317231        5.8148719500
 Si         5.7084858613        2.7189378581        4.2071748051
  O         3.1092278513        3.8172356204        5.9970358720
  O         4.6581111530        1.9009721909        5.1523247061
  O         5.8126152504        5.9742290056        2.2881629966
  O         6.5565305766        3.8474977005        4.9944113778
 Si         3.2096737034        0.7828739534        1.3095214361
  O         1.2231796406        4.9183816711        0.9100905320
  O         4.7668409918        4.5011624128        0.6591768860
  O         2.2768245699        0.6526361578        2.6307261872
  O         0.4278908369        6.6381082363        5.3231026543
 Si         1.4929543643        0.4570403941        4.0539818239
  O         2.3698239841        6.2344087739        6.9551138793
  O         4.0980376615        2.0668130527        0.8963627126
  O         6.7961676493        1.8066739663        3.3604734916
 Si         6.5045208465        7.1222037293        3.1319316256
 Si         3.3011815134        4.9516884790        7.1320501937
  O         2.8750817653        1.3953539472        7.2085824113
  O         2.3032115722        0.7236756092       -0.0289925667
  O         7.1110262517        3.7729226227        1.7219926798
  O         7.4430596662        5.4866860849        6.7275431903
 Si         1.7840879878        7.3016804531        5.9111927478
  O        -0.0038560337        4.9895113493        3.2839252340
  O         4.8375159938        5.4104239992        7.1200304699
  O         7.4573840717        6.3140201971        4.1779100027
  O        14.6486242651        0.2506561624        3.8380597746
  O        14.7227846337        0.3409703411        0.8445972051
 Si        14.5906705451        4.6187181069        1.7107003723
  O        14.6537002345        4.0341122021        5.7982042410
 Si        14.3719788835        5.3115540174        4.8390599227
 Si         7.6272961088        5.0470131626        5.2072937213
  O        14.3279880161        3.0211332263        1.5616420793
  O        10.6536024680        0.9762808216        6.6110196499
 Si         7.8737641168        2.4649938249        2.2990861887
  O        13.4243091474        5.5749322693        1.0634883383
  O        10.9547232894        4.8589192968        3.3480252817
  O        13.1814519792        1.7987196522        6.0521370412
 Si        10.1049851891        3.6910557080        4.0642864051
 Si        11.7305396985        1.3867869345        5.4933271864
  O        12.7592167579        0.9775257861        2.3043166928
  O        11.1393760923        2.6899508684        4.7529665315
 Si        11.6339633480        6.1620925625        4.0141801709
 Si        13.6942263811        1.5836077977        1.1533495502
  O        12.7988706170        5.6495489911        4.9973581875
  O         9.2376075273        2.8636366561        3.0275781536
  O         9.0971022211        4.4187705799        5.0837459556
  O         8.4229475590        1.6374257125        1.0540253468
 Si        14.0307734887        2.9320307379        6.8042679503
  O        12.2785542482        7.0585891222        2.8618186821
 Si        12.6825209410        7.0066572816        1.3099964110
  O        12.0373030209        0.0867970812        4.5817607925
  O        11.3189360498        7.2129584794        0.4324805646
  O        10.5627342216        7.0339646008        4.8246373041
  O        12.7671917579        1.8815174506       -0.0906693991
  O         5.3148304198        7.8595702116        3.9297890282
  O         3.2698162158        7.3685480553        2.2173686550
  O         2.8644871381        7.4520553210        4.7452383937
  O         4.2522544360       14.3318768124        1.5468818242
 Si         3.4860294336        7.6621189360        0.6522535956
  O         3.5890814820       13.3422166649        6.7895153543
  O         6.3729326387       10.4755008960        0.8980434005
 Si         6.3921292808        8.8788345286        0.6685011144
 Si         0.8169412659       10.1539337851        6.6626149313
  O         6.3808111843       13.0019273059        0.9724009222
 Si         6.1372346943       10.8320670714        6.2064905921
 Si         3.7454425858        8.0781066742        3.5843266686
  O         3.5231276147        9.6613196105        3.4292708626
  O         1.8020875650       13.9811913268        5.0800746652
  O         5.4088777291       10.8918315158        4.7677842828
  O         1.6398839480       11.5529597441        6.5400113113
 Si         2.5074280152       12.7105290402        5.7730741600
  O         3.1071148073       11.9597252349        4.5071437259
 Si         4.1828306560       11.0895843006        3.7413635051
  O         4.5013642752       11.8615720896        2.3762969485
 Si         4.7842242230       12.8802567916        1.1666168163
  O         1.6402454388        8.7562182662        6.6260455480
  O         7.0623321561        8.1880082501        2.0112787500
  O         5.0102752058        8.1136064369        0.4746683967
  O         5.9855746120        9.3549270790        6.8673256431
  O         5.6500397156       11.9403186641        7.2888135951
  O         2.6227395842        8.9213777360        0.1818274787
 Si         7.3161167812       11.7539768952        0.5728975952
  O        10.1411979428       11.6958756196        5.7295395337
  O        13.3415444089       10.9648035135        1.3096202762
  O         8.5997679202       11.5548675385        1.4702425483
  O        10.3107749353        7.4516227623        7.3564804695
  O        10.9738469698       11.4614366763        2.1267715405
 Si        13.6971770595        9.7268421639        0.3516497363
  O        14.4937239779        9.9798335874        5.4701987011
 Si        10.5867294580        8.1823062487        5.9497953988
  O        13.6727098402        8.2670737662        1.0638974545
 Si        13.1330197994       14.6000567562        3.4108300771
  O         9.7406380978        9.0855489853        1.5625985122
 Si         9.6291004996       10.5911224876        2.1949631085
 Si        12.5177687760       11.5739453201        2.5389098740
 Si         9.9606961452        8.1079188509        0.2785350413
  O         9.0822016788       10.4745722087        3.6842344251
  O         7.6711796033       11.1426873813        5.8887636138
  O         9.3331359868        9.1606574598        5.8150060213
  O        13.0098999498       13.0804171311        2.8678819911
 Si        12.9280743537       10.2504643371        5.3127534788
 Si        11.1788657954       11.7214368845        6.9467294002
  O        12.6159988232       11.5588724739        6.2280131845
 Si         9.0354057700       10.6308979110        5.2620678734
  O        12.6878237408       10.5674079424        3.7715257804
  O        11.9839983272        8.9994544706        5.7365143016
  O         6.3066155909        1.8795092348        9.2544674073
 Si         2.8528946781        3.4970705949        9.8942904128
 Si         5.9650322291        3.2933952740        9.9546578618
  O         6.8009540863        3.5211576738       11.3044874557
  O         4.3931952801        3.2810226242       10.3215954711
  O         1.1253066682        5.5591126968       13.0862712389
  O         2.0620432750        4.4123524183       10.9540336332
  O         2.1316066281        2.0524112732        9.6473235291
 Si         0.8949296294        5.3799466384       11.5035548338
  O         6.3828465234        4.5153734440        8.9876897519
  O         2.8645186871        4.3204162249        8.5228161773
 Si         1.6249212163        1.3297408526        8.2768886410
  O         5.4060675220        3.0301175153       13.4325673209
 Si         6.2718821852        5.6193033361        7.8194044203
  O         0.8992033314        6.8650004446       10.8090723288
  O         2.8610933415        3.7736275292       13.9182326094
 Si         6.9918965968        0.5894896333        8.5741931576
 Si         2.0806781545        5.1541430385       14.3033825642
 Si         6.8930176921        3.4363697730       12.9057470888
 Si         4.2548872081        3.2565091134       14.5382288529
  O         6.4531629450        7.1192068276        8.3546123937
  O         0.4786130186        2.2238928328        7.6089001755
  O         0.0770671369        0.3307566321       13.0955606315
  O         3.1056937612        6.3856922180       14.4999166867
  O         7.2939303807        7.0465642390       12.2922348675
  O         7.5455913259        4.8200228821       13.5068648620
  O        13.0244872067        3.5942736131        7.8495133029
  O        14.2475981646        4.5801153509       11.2964027114
  O         7.8568342380        2.2107004891       13.2723908984
 Si         8.3118174596        6.2353043654       13.2711634688
 Si        10.0025944787        1.4065709969        8.0188362793
 Si        11.8640174862        2.0735043575       13.3540315722
 Si        12.6631894082        4.3841259928       11.4832447284
  O        12.1984810741        3.5357910105       12.7695605040
  O        12.0272441941        3.6046967617       10.2299172918
 Si        11.7033271033        3.8973178090        8.6844290202
  O         9.7387102995        6.1389037936       12.5211898075
  O        12.1114443211        5.8871934470       11.5439220463
 Si        10.8079953272        6.8109168279       11.5326230237
  O        11.5377146439        5.4824944648        8.4356095608
  O        12.3649516739        0.9716008155       12.2756305780
  O        10.4235268553        2.9662230273        8.2773068651
  O        10.1309293662        6.8703655748       10.0622609426
  O        10.3219553787        1.8819416983       13.7680238888
 Si         8.8466312500        1.4153432439       14.2523398145
 Si        11.0068125280        6.9657869025        8.7031283294
  O         8.3972032747        1.1466202938        7.9350077026
  O        10.7237663902        0.4902360118        9.1605617875
  O         8.7591533301        7.0411622881       14.6502606257
  O         8.6765271171       -0.1702535705       14.1582420399
  O         0.9892969922       14.5771865180        8.5937200844
 Si         0.9644055773       14.6498156389       14.3516492838
  O         5.8220182486       14.5764099287        7.6893291506
  O         2.4625245049       10.8922845233       13.1755648240
 Si         1.3920990433        8.3898884882       11.1018546004
 Si         4.3415403711        9.3146911581       10.6495924680
  O         5.3235187799        8.8399720077       11.8648053395
  O         2.9444110918        8.5148742778       10.6457406169
  O         4.0148260443       10.8820174238       10.7262651519
  O         4.2612113018       13.1045939337        9.3098035909
  O         3.4489896124       13.0177332524       11.9850790297
 Si         4.4038822791       12.4338832670       10.7861217564
 Si         2.8879717319       12.4240584591       13.4128834229
  O         1.3117587004        8.5908225369       12.6908752679
  O         5.9697791939       12.5990371658       11.1408277393
 Si         6.3256443220        8.7122670860        8.3129513078
  O         5.0826214981        9.0852269778        9.2547788386
 Si         1.7101679542        9.6373460447       13.8309273932
  O         7.0486422871        8.9237289516       13.9233708433
 Si         6.8515528482        8.6019237457       12.3602354899
  O         0.4880548332        9.5852506010       10.4685436799
  O         1.5600973950       13.1769088787       14.0015380394
 Si         4.8478246696       13.2631115789        7.7861857430
  O         4.0848929461       12.4465175541       14.5038573958
  O         0.4048352991       10.1483810905       14.5741437761
  O        -0.0032133471       10.2321447091        8.0316764362
  O         0.0890268525       12.2237925621        9.7340072398
 Si         7.4486923754       12.9525894914       10.6047141145
  O         7.9389627866       12.0368572678       13.8365113649
  O        11.4476128152       10.9229108410       12.1184203181
  O        12.0254579668        8.2059641936        9.0176886498
  O        13.0746870647       13.9108701540        8.6757098414
 Si        11.5070745304       12.5300476486       12.0216993428
  O         7.4413701995       14.1543776985        9.5618611967
 Si         8.8225228682       13.2653024436       13.2535240572
  O        10.4033806015       13.0096773322       13.0922904183
  O         7.8586704323        9.4932838746       11.4651642611
 Si        13.5780539570       14.6452021556       12.1635220554
  O        12.8035198980       10.5394246689        9.8087720937
  O        10.8867898289       12.9989462658        7.8516555378
  O        11.0466991798       10.4008054740        7.8575367969
  O         8.1763210423       11.6444293176        9.9971004009
  O        12.9374400591       13.1761408958       12.4494236090
  O         8.2770142889       13.5863714429       11.7973335962
 Si        14.4132959451       10.6453249902        9.5446811176
  O        10.0791391701        9.8166649211       10.0631102959
 Si        11.4149688040        9.5230886360       12.9032950334
  O        14.2573503789       14.6547951222       10.7238395903
  O        11.2332671134       13.0222074713       10.4909646691
 Si        14.5254543460       13.8026031289        9.3956330531
  O        12.7038546210        9.5767644684       13.8404105272
  O         7.7126895196        9.3399473668        8.8530274947
  O        10.1301998472        9.2171799475       13.8334799502
  O        11.3904324802        8.2767785163       11.8819693385
 Si        11.4983256693        9.7356434014        9.2494634485
 Si        11.5028090360       13.8083319191        9.0953222650
 Si         8.4786969756       10.0572481008       10.0801062952
