216
14.938 14.938 14.938
 Si         5.3547395664        5.7156226866        1.9404069995
  O         5.7389091953        2.5774429033        5.8872208938
 Si         4.3237548980        1.9350860987        6.2479576065
 Si         1.4220367119        1.9887212770        5.7347501039
  O         2.9718658562        2.4948386352        5.5595808433
  O         5.4640350423        0.9829912460        1.6401473449
  O         6.8849177641        5.3095154856        1.5762912683
 Si         6.0473621798        5.9829113889        4.8886315639
  O         5.1469202938        5.6468446256        3.5578988904
 Si         6.8824825261        3.0881863393        4.8724035582
  O         5.2265472684        6.3876506085        6.2181170683
  O         6.4659441035        2.5745282635        3.4073720278
 Si         0.7592043501        6.6901828897        1.4239483141
  O         6.8914898616        4.6594755102        5.1368856579
 Si         6.8230646626        1.7503835236        2.0730055196
  O         0.9081671870        5.2163387821        0.8314844384
  O         4.4963723861        4.8200411702        0.8475820420
  O         4.9072012990        7.2210878997        1.5760543780
 Si         4.4255619632        0.5453687521        0.4724176473
  O         1.2395953779        0.3594852946        5.7178963082
  O         0.5840827914        2.5657041161        4.4729684318
  O         4.3926084299        0.4191642826        5.7323961123
  O         2.2525224060        7.1405199922        1.8284014583
  O         0.9995949087        2.5675072079        7.2080040377
 Si         0.8845670197        7.3670427807        6.1845852362
  O         7.1330396451        7.1372596263        4.6622613694
 Si         0.2431872220        3.8290145997        0.3773424923
  O         7.2181155798        2.7468894812        0.9086564082
  O         1.5794827129        6.5525634028        7.3954351837
  O         0.0007687796        2.9902056202        1.7533567328
 Si         7.4502909701        4.2483715558        0.4642893459
  O        14.7723618277        6.4749843360        5.3039384522
  O        14.6740916633        6.7249254624        2.6753580897
  O         9.6280100764        6.9689821440        0.2532177963
  O         8.1866178707        0.9314585546        2.2532187967
  O         8.4398920981        2.7323743816        5.0538628413
  O        13.9549423449        4.4386501606        3.7362103740
  O        10.3758989941        5.5849200145        2.4157320115
 Si        10.7509108152        6.0710796574        3.9204705339
 Si        13.9380505254        6.0341300157        3.9632480190
  O        10.8900409027        2.5523008556        4.1459508236
 Si         9.9342240130        3.3366216216        5.1493802052
  O        10.2015299502        4.9009151369        4.8915274142
  O        12.3468194164        6.3911088139        4.0664538856
 Si        14.4485904357        2.9622081198        3.3115369893
 Si        11.7897674325        1.3143986262        3.6755913262
  O        13.2430022272        1.8957097888        3.3137925229
  O        10.3666233916        2.9951054168        6.6236535497
 Si        10.1692160935        5.5529239412        0.8141383537
  O        10.9551708298        0.7434086206        2.4141244795
  O         9.8656308459        7.3880152486        4.3255095959
  O         9.0419902767        4.4848767545        0.3330047577
  O        12.0204703002        0.1724750115        4.8083599633
 Si         9.5352776130        0.1159769948        1.9633485060
  O        11.6277329441        5.2443693151        0.2321213781
  O        11.8665890979        0.9059677480        7.3016948376
  O         0.2546690292        7.6409664195        0.2302642152
  O         1.7360397419       12.4423514802        0.4958714828
  O         0.5170794775       13.0381147382        6.9761747095
 Si         3.5059465784        7.8498682329        1.1064687134
 Si         4.1384035954       14.0064840763        6.5461730706
  O         2.0021571111        8.0550501477        5.2234173783
 Si         3.3290293007       12.5546809052        0.7248550176
  O         2.8413064036       13.2671333989        5.9657135558
  O         3.4856479535        9.3890958819        1.5001623204
  O         2.6597419949       10.2941962940        6.5418398940
 Si         4.1496191108       10.3039285115        2.6287610739
 Si         1.2957592204       13.6653091076        5.7080299614
  O         5.7258009534        9.9623074250        2.7380004302
 Si         2.3053867263        9.6487412294        5.0978793446
  O         3.4989356070        9.9622304658        4.0633530318
  O         3.8225452353       11.7898903978        2.0720946585
  O         6.2981780523       11.2038448190        4.8856854255
  O         0.9936467084       10.3729088634        4.5562669746
 Si         6.1183316781       11.7529559561        6.3586307164
 Si         6.9564995932       10.5064360487        3.6196676608
  O         0.7620721430       12.9673533917        4.3182830365
  O         3.7381641133       14.0981354065        0.9095230237
 Si         0.5433634881       11.3572379213        0.5366163691
  O         5.4742290634       13.1929660038        6.3008268167
 Si         0.2384139972       11.5253036412        3.7386316722
  O         0.3375993061       11.2024977339        2.1517927247
  O         7.4888454269       11.8577322640        7.1406673121
  O         5.2125926842       10.7747198371        7.2126685475
  O         0.1693935284        8.6291652153        6.8786430658
  O         4.1500950985        8.4566105934        7.3864131821
  O        13.9142135488       10.9727789101        7.3154486709
  O         9.2244042438       13.7662313640        2.8304782358
 Si        13.7207853813        9.3933558194        7.0972396417
  O         9.1269608653       12.1830753570        4.8216879851
  O         9.9689825282        9.2215510260        1.4193907530
 Si        11.0915443346       10.1899221430        2.0245575647
  O         7.7722851718       11.5592052408        2.7207443312
  O        12.1897832583       10.5081411213        0.8974341158
  O        13.6419599958       11.3656695003        4.1369947949
  O        11.5146693936       11.4620620881        5.3095499079
  O        10.3775250239       11.5412564265        2.4935822908
  O         8.2167274143        7.5408853457        2.3947326012
 Si        10.2458932793       12.1477365740        5.9743358208
 Si         8.8562002062        8.1249348187        1.0570348549
 Si        11.8694619751       14.5602941584        6.3239111310
  O        10.5249584094       13.6709942302        6.4596176418
 Si         9.1381941873       12.2485203785        3.2138347832
  O         9.7056292242       14.6894522663        0.4099821047
  O         8.0617048827        9.4400305866        4.1464512364
  O         9.8890004888       11.2005240195        7.2232159537
 Si        12.4653235009       10.3901912788        4.6190864193
 Si         8.3599762835        7.8639345313        3.9450398751
  O        11.8542613013        9.6195895395        3.3316025909
  O        13.0298921791       13.5280071644        6.7239843788
  O        12.8642424847        9.2831510875        5.7251531477
  O         7.5545118471        8.6512688781        0.3061606286
  O        14.1035105869       11.8664998825       -0.1626000421
 Si         2.2551039214        1.1387412812       10.8910412413
  O         1.5736009474        2.0845763130        9.7926718861
 Si         4.4791310990        0.7637684352        8.9010630996
  O         2.4034505034        1.7441710788       12.3881629496
 Si         2.6872541365        2.4995913640       13.8078084930
  O         4.8792445631        6.0490076316       13.3569121464
 Si         1.1645831568        3.1951922638        8.7055085025
 Si         2.3761827233        6.0631628496        8.7351501252
  O         3.8180427539        3.6494142749       13.5349825645
  O         2.1536091391        4.4700656174        8.8024942459
  O         3.7423309536        0.8946756122       10.3124282487
  O         6.4758701854        4.3202657291       14.1074320351
 Si         4.8870753142        4.6718513582       14.1832941643
  O         3.9797195246        6.2232394300        8.5497836087
  O         1.9164339076        6.8784124960       10.1062935980
 Si         7.1282914272        0.2989308760       10.3039859265
  O         6.0555099801        0.7481259640        9.2078908270
  O         1.2728411583        3.0715963827       14.3410132314
  O         4.1512198852        1.9800493569        7.8718911670
  O         5.2283536366        0.4219386169       14.0256213054
 Si         4.9696983552        7.1097761986        7.6448570560
  O         6.5487871598        0.3242297474       11.8016408973
  O         3.2404531638        1.5779939380       15.0247417116
  O         6.3158256232        7.4738785378        8.4630813025
  O        14.6934475742        3.7354701453        9.2128235578
  O         8.3614914988        1.3159701249       10.2864098456
  O        13.3618959446        5.8908338426        8.6313249742
 Si        13.2377647394        4.3108086298        9.0103081609
  O        10.1323181107        2.8897501882       11.4556430873
 Si        11.1313945450        4.1346725519       11.3176092108
 Si         9.8854076708        1.7563013615       10.3619126380
  O        10.3765658949        2.3271603080        8.9683100299
  O        12.4399032600        4.0627195497       10.3810516423
  O        10.1939820686        5.2331158608       10.6201530769
 Si         9.9720905283        6.6939672233       10.0415984079
  O        11.7036516739        4.3198676708       12.7922003967
 Si        12.5974737747        5.0534505744       13.8972850605
  O        13.0282868034        6.4633027169       13.2055729574
  O        10.8666597234        0.5538990575       10.7032917453
  O         8.7757262525        6.9019055667        8.9711281169
  O        12.5372863491        3.4097752141        7.8788399259
  O        13.8472722971        4.1682104800       14.4382321761
 Si        12.8776010364        7.3031411928        9.2771569671
  O        11.2826072515        7.2216491124        9.3047763677
 Si        11.3278006956        2.3717455139        7.7004384433
  O        13.5363973357        7.3876282041       10.7729036681
 Si         4.4506448844        7.5823469505       13.2213178534
  O         0.9933356350       10.0304458635       14.6049518731
  O         1.4095976040       14.6886208662       10.8774037046
  O         3.7451627448        7.8071796148       11.7875684225
  O         3.4003167948        7.8084037204       14.4398236008
 Si         2.2063724649        7.9647917243       11.2998515933
  O         1.3982549668        7.8845068799       12.7096193738
  O         3.9821480956       11.9503248392       14.2889845027
 Si         5.8584842582       14.3817725628       12.9451334773
 Si         0.5463398821        8.6130220075       13.9120477399
  O         5.7225608941        8.5612094631       13.3645870998
  O         1.9092399316        9.4480232912       10.7121205144
  O         1.9148761194       12.1104511298       10.1977016583
 Si         1.3031314332       13.1379354477       11.2984530286
  O         3.5676280635       10.4583298399        9.0591535609
  O         2.1923756882       12.9355809843       12.6301800516
  O         3.7399583798       11.0484334064       11.7095540918
 Si         3.6825619254       12.3045941151       12.7422044911
  O         4.7358467198       13.4344828370       12.2748716521
 Si         2.7878845241       10.7686283395       10.4114545160
  O         6.9045927722       13.4719702763       13.7656218596
  O         3.9860722500       14.3576715219        8.1282572775
 Si         7.0697538775        9.2796595377       13.8592683995
  O         6.9578088777       10.8766636934       14.0330886355
 Si         3.8679005459       10.0124149689        7.5604438194
 Si        13.4024423153       12.4500289794       10.6482282893
  O         7.8042854633        8.9361198860       10.2960111336
  O        13.1172702453        8.6263665204        8.3840055707
  O         8.1321401390        9.2982194916        7.8022639048
  O        14.7440298900       12.6082179376       11.5351350073
  O         8.2909726890        9.0496391328       12.8640134546
 Si        14.0301141223       12.5664060110        7.5437555962
 Si         8.9689198512        9.0006270944       11.4383121517
  O         7.8837433172       11.9553135204       11.8831980238
  O        12.6123350557       11.0287250759       10.7978516960
 Si         8.4832544515       10.8786969937        7.9189926308
  O        12.4570467064       13.6032472614       11.2134701017
  O         9.9773210396       13.0360306597       10.7170716348
 Si         8.4782892787       12.5183973117       10.5013254628
  O        14.1071713607        8.8152448544       13.1102745780
 Si        12.5078300460       11.6019856055       14.6952230187
  O         9.6888006875        7.5720476677       11.3460380908
  O        11.8717985945        8.7240431183       12.1216001866
 Si         7.7668251657       12.1501845114       13.4836039707
 Si        13.1587930630        7.7927079518       12.3056409070
 Si        10.3046660181       13.5584022663       14.3859991271
  O         7.5681263847       13.7282055832        9.9586772829
  O        11.6714226972       12.9517354199       15.0080438354
 Si        10.9650910600       14.0864292380       11.4208675293
 Si         7.7239449993        8.1386325518        8.8730458927
  O         9.2113111537       12.3624223072       14.1859272782
  O        11.9408380536       11.1136609485       13.2581670093
  O        10.0780899092       10.2117563426       11.3763117676
  O        10.6008459039       14.2584388772       12.9701527428
  O         8.4727067585       11.3406171158        9.4423506729
  O        13.7839266924       12.7772421430        9.1205071255
 Si        11.6329358272       10.2970628427       11.8889866675
