216
14.882 14.882 14.882
 Si         4.2273653845        4.1748298562        3.5195281794
  O         3.8774204482        3.9688484982        1.9663352669
  O         2.9706051938        3.8658698517        4.4665786359
  O         5.3816879307        3.1384109518        3.9606347944
 Si         2.1776235999        2.8367417150        5.4298456709
  O         4.7127982442        5.7059783939        3.5648859725
 Si         6.2221902617        2.4962763889        5.1733740175
  O         1.2204907864        3.8090182574        6.2788133187
  O         1.4815897752        1.6636288761        4.5402615507
 Si         4.8871117699        3.9435105538        0.7088097454
  O         5.3843987943        1.2424287544        5.7911986252
  O         6.2882279917        4.6313698621        1.0758331044
  O         3.0601190170        2.0670431451        6.5297727706
  O         6.5155502173        3.7161948878        6.1869845519
 Si         4.3096813695        1.1954073765        7.0221731856
 Si         5.1093609998        7.1864476428        4.0025769075
  O         7.1148788337        6.0321917190        7.1905068252
  O         5.1321658289        2.3901461397        0.4229455148
 Si         1.0850999871        0.0974841984        4.4096061408
 Si         7.4416785528        4.4356666952        7.2772331260
  O         6.4391056115        7.1168486642        4.8958549728
  O         7.6763845634        1.9905692768        4.7289681467
 Si        14.5957333043        4.0058177127        6.7962475311
  O        14.4618994222        6.1220779237        0.6653592730
  O         8.0200235006        0.6741277555        2.6473584440
  O         8.0177450744        3.4742164193        2.6420192578
  O         8.0985675007        6.1670012837        1.9892299070
 Si        12.2308592600        0.8707554585        0.4436866691
 Si         7.8319585418        4.6315703314        1.5291466266
  O        13.8089484138        4.7996392661        5.6279818612
 Si        12.7267568643        5.3645789316        4.5579898820
  O        11.6621513719        4.1284595603        4.3820565941
 Si        11.2622261678        2.5433655245        4.4836738701
 Si         8.4572616217        2.0746616920        3.3260966761
  O        10.0568870586        2.1563137671        3.4834731409
  O        10.7572439525        2.1570221173        5.9658940524
  O        12.1519735401        6.7696427981        5.1551746066
  O        12.4868872448        1.5768154944        4.0541343647
  O        13.3133190677        5.8682107043        3.1246471676
 Si        13.0934878697        6.0240700967        1.5216979121
  O        12.4800443095        4.6188136200        1.0803319589
  O        13.3126119585        0.8312570732        1.6434130410
 Si        13.0821150218        0.3627022156        3.1725736453
 Si        11.9536377472        7.2804201465        6.6855511446
  O         8.8396666627        4.2057282605        0.3261638355
  O        14.0400378627        2.4963970451        6.9615774512
  O        11.8188307484        2.3843014209        0.1668104933
  O        12.0748210646        7.1977797257        1.0697643650
  O         9.0371319620        4.4673917709        7.0060425892
  O        14.4818314346       -0.0784703413        3.8012003726
  O        11.3224840967        5.9470736429        7.3511147051
 Si         7.1407251489        7.4167966224        6.3307423426
  O         4.0558009769        7.7650485565        5.0467565412
 Si         0.3599575184       13.7622932594        7.1743165034
  O         1.8892043621        8.0159413572        6.3057879439
  O         3.5487944269       12.3942721498        6.5495461819
  O         1.0810988901       14.3130737321        5.8599876709
  O         1.6503379257       14.3872285388        1.0731113544
  O         1.0840755749        8.0946913258        0.9148575296
  O         2.1518508949       14.1218560678        3.5343219658
 Si         3.3553094507       10.9793700796        0.8078247828
  O         2.4834260826       10.0169533108        1.7339823476
  O         5.1978932664        8.1951506824        2.7287788168
 Si         5.7641588986        9.3350488261        1.6900411326
  O         6.2128960013       10.6530990927        2.4861568340
  O         1.9802288149        8.3452065524        3.6322119551
  O         3.1562545214       10.1672699809        5.2887051561
  O         3.3029620514       12.4002331599        1.6551316543
 Si         1.9969343344       13.2595067152        2.1653800240
 Si         2.7151247944        8.6191149280        5.0528745489
 Si         4.3169052192       11.1336855129        5.9292142255
  O         5.3689882907       11.6548797249        4.7965379457
 Si         6.6212632703       11.5242942786        3.7633237740
 Si         1.4180194198        8.9596952514        2.2322261606
  O         4.7160638283       10.0749180166        0.6613007542
  O         0.7441901648       12.2384166337        2.3167216457
  O         7.0138449070        8.5261462995        1.0062026256
  O         7.1118310692       12.9750436013        3.1498811333
  O         5.0488434849       10.4235149413        7.1870603706
  O         0.0678716376        9.6912717623        2.6599554769
  O         6.6080582664        8.4549555767        7.4395509371
  O         7.9355425125       14.0497655477        0.6741054987
 Si        11.0595984546        8.2004628734        0.2946020264
  O         9.5687289507       13.4030206311        2.6357615050
  O        12.0736519712       13.9674655897        3.0542945475
  O        11.2354528329       12.3430842899        0.9207662282
 Si        13.7298625569       11.3245497007        5.9536529928
  O         9.5299180654        7.8631346228        0.6686576644
  O         8.4443651658        8.1936311538        5.7134028068
 Si        14.5157461501       11.2180158369        2.8950596693
  O        14.3084288930       11.4906067486        4.4646454156
  O        11.1583507299        8.6920799456        6.7786725802
  O         9.9808822660       11.0903039428        7.2071966810
  O        12.1491150658       11.0794202630        5.8764238537
 Si        12.2202545280       11.0733298666        0.7931016053
  O        10.9424359465       14.8943179363        0.9057456608
 Si         8.2948229947        7.7563137673        1.6880893804
 Si        10.8494312738       10.1872465052        6.1929484811
  O        13.1526152395       11.3260398459        2.0719246298
 Si         8.6729876426        9.2735807556        4.5056387796
 Si        10.9759858884       13.6052836849        1.9000170263
  O        11.4120680138        9.6837886756        0.8250182037
  O        14.3042937226       10.0125904779        6.7021433383
  O         8.5980443617        8.5229517902        3.0784035115
  O        10.1162650603        9.9213587624        4.7847371088
  O        14.1417419678       12.6453813064        6.7878543588
 Si         8.0956589543       13.9773454337        2.2943715343
  O         7.6890137125       10.5763664026        4.5473735558
  O        13.3350006746        7.6671015763        7.4447854194
  O         3.4712859756        3.0436130500       10.9250339419
  O         4.9556994668        2.1360389952       12.8102886327
 Si         2.3099973913        4.0029106027       11.5022913006
  O         1.5692378660        3.3858631673       12.8064160017
 Si         4.9958493598        2.8811889866       11.4122142937
  O         2.8929027396        5.3758690985       12.1614607099
  O         1.4070453859        4.2246921183       10.1811243993
 Si         3.3605507036        5.8487737391       13.6539480951
  O         6.0334396363        2.0606192953       10.5144692620
 Si         6.4562639458        2.0536148969        8.9726781832
  O         6.3743715472        6.5529786402       12.4897865049
  O         1.5759243080        6.2021461109        8.3505196022
  O         5.5457911321        4.3920976634       11.4155595793
 Si         0.6161732301        5.3620942568        9.3489275717
 Si         4.8791508962        1.2980484068       14.1632278360
  O         0.9228083622        1.2318659805       14.1355291085
 Si         0.3458344842        2.5330370994       13.4101964502
 Si         6.8438527891        5.0749082475       12.0495020594
  O         5.0564689526        1.9874409571        8.1922264456
  O         6.0216684635        0.1753205483       14.2123546945
  O         7.1968597246        3.4729096916        8.5926906841
  O         4.1355414644        7.2743530009       13.4699053236
  O         3.4714726314        0.5861086347       14.3834790668
  O         4.3009151933        4.7115243182       14.3019564925
  O         0.4145899911        7.1186109351       13.2176350047
  O         2.1533705969        6.0265776198       14.7072684287
  O         0.0005468403        6.2671788919       10.5673209151
 Si         0.4622894571        7.4370079795       11.6114821301
 Si         1.9634892288        0.0659419923       14.4873194784
 Si         0.7847370066        6.8659197059       14.7892533863
  O         7.2861572224        0.6682470201        8.7660186949
  O         7.3690450143        4.0286418526       13.1629725258
  O        14.4723876009        4.7088253203        8.2658970256
  O        14.3101414386        2.2362586913       12.1471261521
 Si        10.2859941503        4.8739705720        7.9601133511
 Si        13.2371835644        1.8691431505       11.0392850517
  O        13.8861030475        2.0680128141        9.5867548940
  O         8.0306781540        5.2894287625       11.0011357027
  O         9.7404870879        5.7107240249        9.2145477020
 Si        11.1246248507        3.7502375746       12.2902659113
  O        11.8967725563        2.7264979686       11.3171433050
 Si         9.5010507041        5.8800469991       10.7840957242
  O        10.6606019010        5.0402775445       11.4897710932
  O         9.8344012308        3.0593377695       12.9812856879
  O        12.1559469082        4.3055445748       13.3858147720
 Si         8.5494513334        3.2239924963       13.9463223783
 Si        13.6897801907        1.4285054483        8.1169066287
  O         9.6629854834        0.9830424908        8.1068840676
  O        10.9216994883        3.4031761350        8.2668465272
  O        14.3034363696        3.3097294332       14.4845623705
  O         8.1043074301        1.7464314007       14.4650236528
  O        12.8956692311        0.3176983462       11.2509522717
 Si         7.6275533162        0.1833227681       14.3249984845
  O        12.1443644611        1.0715505017        7.9370116889
 Si        10.8397447465        1.9250363932        7.5594108487
  O        12.9011774278        0.3321772848       13.9713316053
  O         9.5917633587        7.3621834708       11.4134392927
 Si        12.7421137312        3.6585636987       14.7263155410
  O        14.5437923907        0.0916410570        7.9488241541
 Si         5.2215387885        7.6706250039       12.3130506155
 Si         1.8343101588        7.7242816896        7.8882536184
  O         0.6301848299        8.5990237055        8.5098733569
  O         4.4491237810        7.6856681443       10.8926621155
  O         1.9163201225        7.9349323897       11.1523556409
  O         3.1497749998        8.1712680191        8.6869681431
  O         3.7194790941       12.4845539156        9.2573871666
 Si         1.8926534225       12.1692957921       13.1180203331
  O         5.0396750492       11.4979240881       11.3217919361
 Si         3.1724214680        8.4573169020       10.2796228514
  O         1.8075742434       13.7240595793       13.4744651243
  O         3.1548263213       10.0617151522       10.3364026786
 Si         3.5998797849       11.5810448630       10.6002236089
  O         2.5560794684       12.1584873129       11.6598034994
 Si         6.1194641385       10.3125128567       11.1932046998
  O         5.8662536821        9.1614107349       12.3189456463
  O         6.0348174793        9.7527322659        9.6600763152
 Si         6.3071583287        9.9093965536        8.0623275476
  O         0.4024964969       11.5632771491       13.0576688106
  O         2.7368656705       11.3218340192       14.2253153557
 Si         3.1781621713       13.1946542890        7.8969053611
  O         1.5702574153       13.2246886510        8.0973661229
  O         3.8148560212       14.6588175611        7.6084102325
  O         8.2632382508       14.4740387521       12.9760520141
 Si        12.4245069685       14.4832558071       12.6137108327
 Si         9.4423390381       14.0768220026       11.9689317936
  O        13.0625043493       11.0745028095       14.3047025258
  O        13.1378735704       10.8201063971       11.6384849846
  O        10.8245418159       14.5529560203       12.6347180099
  O         9.4311230359       11.0809414392        9.7314599510
  O         8.7714214310       13.2920811821        8.3446517482
 Si         8.9317034596       11.6528601241        8.2965374408
  O         9.1756916291       14.7166531413       10.4979625477
 Si         8.7398184979       14.8229205652        8.9314839379
  O        11.7469980783        8.6779291794       10.9975275536
  O        13.3079248950        9.7453998692        9.1856539667
 Si        14.0719751557        9.0226378223        7.9516432702
  O         9.5909582311       12.4823640335       11.9041292917
  O        11.1501948183        8.1063093269       13.5481871800
  O        13.1380872035       13.0756772043       12.6489245296
  O         9.7679453008        9.8836307851       12.1444763299
  O        14.3024262319        8.6095161796       11.4069163717
  O         7.5207495999       10.9939110551       11.4925869113
 Si        13.1259264966        9.4705570361       10.7769683156
 Si         9.1008989694       11.0864853359       11.3125467927
 Si        13.6832250270       11.6132214073       12.9214485110
  O         7.5039046101       10.9933868717        7.9303051831
 Si        10.5643573265        8.4815650515       12.0701256522
