216
14.768 14.768 14.768
  O         4.9075285368        4.5936718016        2.7869275101
 Si         3.6912344084        3.9194504088        3.6023456004
  O         2.2833776299        4.5998018615        3.2726917785
 Si         4.2855069404        4.1683260036        6.7312980963
 Si         0.9860637997        5.5315749566        3.1719224239
  O         3.5392053996        2.3813412791        3.1874035853
 Si         3.2587066671        1.0120746168        2.4001139330
  O         4.0215714398        4.1046667946        5.1645347539
 Si         5.8042412384        4.4374076122        1.4613828015
  O         3.6211011640        1.0682728787        0.8254530808
 Si         0.7438825737        1.6787634449        6.2074625678
  O         6.4800385344        2.9598260410        1.4739008405
  O         1.3202108668        6.8939938253        3.9252000589
  O         6.9696766380        5.5710262484        1.4811699724
  O         1.9698663504        0.8094750847        5.5806029913
  O         1.6892438239        0.6584832343        2.6267571978
  O         6.2557776544        0.5695244717        4.6776958588
  O         0.5838599372        5.7446301222        1.6284142845
  O         5.1827746068        5.4133855094        7.2250806978
  O         5.1641690111        2.8898513842        7.2140735593
  O         4.8430908406        4.5873734928        0.1723336817
  O         0.2441970031        3.1222817095        5.6561068478
  O         4.2547103022       -0.0815899836        3.0340625310
  O         1.0665815054        7.2135340190        6.5542374217
 Si        14.6595149977        5.0516656227        0.3504661504
  O         7.6184524709        4.9239081914        6.4047984563
  O        14.4477930890        4.9172911125        3.8657253380
 Si         7.4928695530        2.2060748444        0.4767316385
 Si         7.6939309905        6.3797373758        2.6929176748
  O         7.7138764858        5.4034768928        3.9518655517
  O         7.5577350713        2.9026708299        4.6071959752
  O        14.2647878917        0.6569809116        6.1522304236
 Si         7.6235178315        1.3469032462        5.0511889067
  O         7.8728011167        1.3920634244        6.6550595481
 Si        13.8023672634        3.7718745040        4.7683717547
 Si         8.1782274487        4.3292354204        5.0426411341
  O         9.7892160351        4.1905651136        5.2405460611
  O        11.9743546813        2.5533437682        1.7231434577
 Si        11.8273288834        4.1415090525        1.4100805919
  O        11.5588305550        5.0812393433        2.6974720207
 Si        11.0339679918        5.1898771281        5.5514302095
 Si        12.6361405470        1.5817339395        2.8504749640
  O        13.3761799409        2.5451399511        3.8603076262
  O        10.8244505863        6.4814853534        4.5993281114
  O        12.4692409176        4.4246143324        5.4267923446
  O        11.4959813626        0.8218832373        3.6906137851
 Si        10.7881067347        6.4847753783        2.9896665969
  O         9.2764867480        6.6425217038        2.3920101018
  O         8.4375493201        1.1490235277        1.2421776246
  O        13.7592681623        0.5949479665        2.2296554409
  O         8.8608742160        0.6541682169        4.2741353441
  O        13.1309791348        4.6762268149        0.6541992285
  O        10.9808665620        5.8191702669        7.0471247827
  O        10.5016431908        4.4362735898        0.5763013537
 Si         0.3712648645       14.5255926176        2.3463533437
  O         0.6514932950       13.7759863345        0.9754413467
 Si         5.1131440909       14.2502233445        4.3219982701
 Si         1.0925867151        7.9548076205        5.0940605976
  O         4.1011766477       14.1058822853        5.5795543437
 Si         2.5562869370       14.1129901262        6.0497552969
  O         1.7266806587       12.8844172422        5.4143201899
 Si         5.6686255177       11.3213365749        4.5889622560
  O         5.7450591542       12.8042863040        3.9464196678
  O         1.7815567659       11.1644311064        3.4513056691
  O         3.2799167564        9.1902035277        2.4593263523
 Si         2.8853689869       10.0229104706        3.8049507854
  O         4.1745081172       10.7488102782        4.4340059337
  O         2.2935853853        9.0247900538        4.9279019068
 Si         4.1088621243        9.4863465342        1.0846378131
  O         5.5845271532        9.9143929492        1.6425260282
  O         6.1696695151       11.4869395643        6.0927095122
 Si         0.8166955155       12.1729839561        4.2957545789
  O         6.6534775442       10.2388181993        3.9374384008
 Si         6.7532244509        9.3196150395        2.6284533672
  O         6.7929147948        7.7138290697        2.9499708182
  O         0.1688039246       13.3696110511        3.4409140437
  O         3.1333342234       10.5035189861        0.2526877275
  O         4.5112405825        8.2831908898        0.0790672637
  O         8.7806752754       13.3687309829        0.0796548443
 Si         9.4019509598       14.7021836686        0.7638354448
  O        12.7898036187        9.8679629788        6.4114247117
  O        14.4463446326        8.6893134675        4.8350752171
 Si        10.9920844858       13.4379896946        6.5787542123
  O        13.2049204976        9.5206696813        1.3080196140
  O        11.9889778544       12.2060680101        6.8151970713
 Si        11.9593589187        9.2875289169        2.2938661350
 Si        13.4707932227        9.9631868195        4.9444292300
 Si         9.2415476963        9.5370304821        0.8566352480
  O        14.3609814163       11.3201318265        4.9162957455
  O        10.6625084313        9.9225361766        1.5469911019
  O        11.6569809213        7.7148758370        2.4563771537
  O        10.0121569957       14.1925468645        2.2126018875
  O        11.8205529816       14.7800837449        6.8938113950
 Si        10.1926609542       14.6490794357        3.7956698345
  O        12.3831123684        9.9242784700        3.7305247184
  O         8.2138267421        9.5194087544        2.0606505347
  O        10.4887218193       13.5498867762        5.0112752225
  O         4.6851760660        3.9353317771       12.3909778979
 Si         5.8345218524        3.6058896904       11.3491269574
  O         5.2490079360        3.5293493838        9.8534456169
  O         6.3961251171        2.1441017640       11.7288248799
 Si         6.1662741328        0.9159923890       12.7457926532
  O         2.5634141535        4.8460423398       13.4613099521
 Si         4.1670405112        4.9422944361       13.5184241850
 Si         2.2794418989        2.9139063191        8.4775098937
  O         4.5962409883        6.4110718675       13.1166586106
 Si         1.6509626750        3.5129556239       13.4385017888
 Si         5.0537878601        2.3759016721        8.7455309000
  O         1.4850814740        3.6168799935        9.6826843070
  O         3.5091742327        1.9515045998        8.9429445794
  O         0.7388017656        3.2807954012       12.1422200421
  O         6.2309796682        1.3163775519        8.8628993445
  O         4.6032530888        0.5790098330       13.0497262317
  O         2.6988389059        2.3179510176       13.5447629359
 Si         3.3412892008        0.9321992125       14.0063375946
  O         6.7209832490        1.3081550127       14.1884488452
  O         0.6595314401        1.2931807078       10.2697128646
 Si         0.4333778267        2.8479405001       10.6360583539
  O         6.9798549693        4.7559018078       11.3983617465
 Si         6.7640294377        5.5093259991        7.6095171763
  O         6.9842136518        7.0504364024        7.9553732178
  O         0.6553370178        3.6858831198       14.6970703360
  O         1.2310388363        1.9771139353        7.7061286683
  O         2.8815726453        4.0934736324        7.5390291325
  O         6.9042075209        7.3200800905       14.0109541550
  O        -0.0024802489        6.0560624017       13.8693895663
  O        14.6896403247        7.0623659519        9.3179210234
  O         7.3853990070        4.6871698664        8.8595679303
 Si         7.6447794572        0.9403254639        8.1859587837
 Si         8.1469100879        4.9053705915       10.2660723393
  O         8.8615421034        1.4761579134        9.1086730147
  O         9.1638276712        3.6931571215       10.5105254129
  O         9.8584000254        1.3133674747       11.5749404481
 Si        10.7001844474        1.5114479401       12.9780244098
 Si         9.7627720440        2.2283618988       10.2222836160
  O        12.2218963779        0.9819908086       12.7332245165
  O        10.5084797868        3.1245162220       13.2052193221
  O        12.7202890383        4.4369946445        8.2863490418
  O         8.9389224739        6.3082664785       10.3333958018
  O        11.2423276965        2.5417394834        9.6726436548
  O        13.6650519742        3.1961871354       10.3318488885
 Si        12.6410078634        3.0650162094        9.0940256428
  O        12.0633995552        6.5775283910        9.4374068599
  O         9.1038886402        5.6709859209       13.5531833514
 Si         9.5938967532        4.1866137139       14.0614850560
  O        13.1106446977        2.0366029473        7.9643657535
 Si        12.2805776230        5.9409630678        7.9750868854
  O        13.4580785879        6.6504290165       11.6636011668
  O        10.2409261489        0.6473207380       14.2917118472
 Si        13.2361993103        0.5534413686        7.3899964804
  O         8.2752550567        3.3612740025       14.4429494809
 Si         8.5105744562        7.2111413848       13.7034091610
 Si        13.3129013769        7.2714630136       10.1942848681
 Si        14.3308412650        7.2382453154       12.8963507944
  O        13.3748878351        6.8912111255        7.2182566594
 Si         0.0087624997        7.5570021148        7.7460213227
  O         2.2286586170       14.5951076437       13.7749045430
 Si         6.5093058060       11.0851240893        7.5917876406
  O         7.0663874588       14.5106502222       12.1268679636
 Si         1.8147859744       10.7191578768       14.0868159820
 Si         0.9574853233       13.7356433722       14.1830380568
 Si         5.3814509606        7.7148877437       13.5935283425
  O         0.8182210223        7.9752542767       12.2151700926
  O         5.3231648141        8.6933878608       12.3086319269
  O         5.2602593547        8.1274514682        9.6913305497
  O         0.7550230785        9.9238056116       10.3570044307
 Si         1.6439835203        9.1457050157       11.4739437773
  O         2.1350123361       10.1633900401       12.6189895136
  O         2.9860756124        8.5097884528       10.8466522872
  O         3.5368214742       12.7952994836        9.8516174507
 Si         2.2265921388       12.8960429564        8.9215153380
 Si         4.5447079040        8.9325965840       10.8997734844
  O         4.5974985925       10.5116994639       10.6595708366
  O         6.0490192640       12.6220668015       10.8155908057
 Si         4.8778461231       11.9270981432        9.9747489775
  O         1.7174963461       11.4147570766        8.4535974155
  O         5.3371337997       11.7372476304        8.4547784269
  O         1.1387512510       13.5354420872        9.9226555672
 Si         6.6256597652        8.3215162335        8.8466885333
 Si         0.4810527562       10.4337442536        8.8368834040
  O         6.4826299365        9.5064288885        7.7913009020
  O         0.3290407547        9.1383822353        7.8804125770
  O         1.3864493548       12.2357095914       13.8586407296
 Si        -0.0152972342       14.6401315728        9.9059004874
  O         0.5020719540        9.9909212612       14.6819984259
  O         2.4639561377       13.8613728301        7.6422574273
 Si         7.4440234864       13.0979093740       11.4369212476
  O         9.2714964740        8.1133806521       14.8327182840
  O         9.9177824820       13.2865261521        7.7893330345
  O        10.4360120043       11.8070559051       13.4537877786
 Si         8.5696112404       12.9736860724        8.6216644362
 Si         8.9845276314        7.8859172945       10.7231968230
  O        13.4631068577        8.2767808076       13.7710773974
  O        13.9538252586       14.4434624467        8.5201077932
  O        12.3834687129       13.0525864762       12.6349071703
  O         8.6112706434       10.6754033032       14.6830483203
 Si        11.8472200394       11.5655760177       12.7598313766
  O        12.9592508346        8.8504179055       10.2601881007
  O         7.5402034705       14.1143425264        8.1922848614
  O        11.4773251717       10.3409221479        8.7009020544
  O        11.6498486013       10.8311199991       11.3312236521
  O        10.3381359237        8.6935999315       10.4154208047
 Si        11.5738878830        9.6962836631       10.1883295579
 Si        13.1480183321       14.4343542399       12.5019148817
 Si        13.6975773936        9.6638942806       14.5572009938
  O        13.8654674774       11.2374604817        8.5268927598
 Si         8.9302142908       12.0423065653       13.9134354268
  O         7.9583993416       11.5726596227        8.1188122214
  O         8.7750545885        7.9581884551       12.3083177832
  O        13.6158189779       14.4398280987       10.9881493708
  O         7.7942763895        8.6161404020        9.9231096027
  O         7.9593762065       12.1487723467       12.6338100074
  O         8.6029623460       13.0488930070       10.2603994574
  O        14.4391639127       14.3618884981       13.4543962564
 Si        12.5383689932       10.9238195546        7.6201564167
  O        12.8744112325       10.7559761863       13.7065890256
