216
14.783 14.783 14.783
  O         2.1424190509        5.1720596324        3.4428315950
  O         6.3387897557        4.7651725229        4.8563884868
 Si         2.7909838815        1.7604600189        1.7317937678
  O         6.0796624041        3.4592041514        2.4753584694
  O         4.0088744189        5.9203565632        5.2557386422
 Si         5.6070718677        6.0990209907        5.4288134064
 Si         5.4947776327        2.7545616523        1.1576179421
  O         3.1210848910        1.5571602602        3.2789994531
 Si         5.7598216521        3.4802632403        4.0510740053
 Si         3.1123821679        4.7085003820        4.6646498964
  O         4.1759741147        3.6119966387        4.1818541999
 Si         1.2093380794        5.9048719041        2.3051701187
  O         1.0765771776        5.1606447404        0.8631173452
  O         2.3720939645        4.0283948620        5.9267685307
  O         6.4059734064        2.1415312594        4.6750744600
  O         3.8591112308        2.8050378176        1.1338469920
  O         1.2337771961        2.2228693316        1.7231499361
  O         1.2272836264        0.9884867034        4.9289257762
  O         5.9058588753        1.2176369195        1.0723076535
  O         5.9196566483        6.4066772309        6.9768889767
 Si         2.5018658053        0.3882920948        4.1660145682
  O         3.0329519488        0.2867476071        1.0624738415
  O         5.9163069276        6.1853706956        0.1508288000
  O         6.0957816114        7.3217981559        4.5090962728
  O         6.1586039696        3.5315685825       -0.0700023332
 Si         6.6569009455        0.0123259221        0.3411473074
  O        14.5275525361        5.9919739323        2.9621788375
 Si        14.6510339039        2.0543386331        0.8498335584
  O         8.1324043887        2.6266262216        6.5683992234
 Si        14.4832691263        1.0498401665        5.4357521534
  O        13.9519145894        2.5446758113        5.7415655099
  O        13.2210528115        4.9280355481        5.0101780698
  O        13.1817970520        2.3811891341        1.4722429642
 Si        13.2600826558        6.1297085735        3.9274391981
  O        10.8454307695        2.8808453916        2.3942371596
  O         9.8542101340        4.9097778084        3.8661235390
  O         8.9493100283        2.5384753570        4.1050451623
 Si        12.7008904892        3.5810369402        5.7295364209
  O        11.4220710618        3.0304351117        4.9207898878
 Si        10.2826615973        3.3606570407        3.8222899232
 Si        10.3393645719        6.3090243628        3.2529554258
 Si        11.7040892076        1.7106132675        1.6990620355
 Si         7.9278880795        1.8876132452        5.1413274577
  O        11.9270926064        6.1591526523        3.0409167622
  O         9.7643721255        6.5048668812        1.7852747096
  O        10.8432387434        1.2305914912        0.4169012866
  O         8.2263273370        0.3092530918        5.1744630400
  O        11.8178696903        0.3400880143        2.5373127840
 Si         9.3486610889        6.6851101554        0.2580356203
  O        14.5449258482        0.4977914741        0.5724529794
  O        14.3691947687        6.8987000446        6.8913707519
  O         8.2162625712        0.4218572924        0.3205283075
  O        13.4689617008        0.3396862860        4.4277449225
  O        14.4557822444        0.1536962230        6.7325823078
  O        12.1595087238        3.8509061273        7.2288389582
  O        13.2289877977        7.5483024438        4.6888598105
  O         1.7481984927        7.4047121654        1.9882561467
  O         3.7779127914       14.6933818849        5.0122350986
  O         5.0778454370       10.2704315396        7.1421221975
 Si         6.4378936577        7.6976842340        0.4952050580
  O         2.8888271276       13.2088129273        6.8035232421
  O         6.0640204555        8.2208814456        2.0118163859
  O         5.5029998466       10.9986395764        1.0712064191
  O         1.9926469326       13.9688774871        3.1800055967
  O         1.8052970634       11.0108643990        5.7505210764
  O         3.8436102549        7.9619384293        3.3660688103
 Si         5.3886230145        8.3695132280        3.5171815315
 Si         2.5281377670       13.6471775043        1.6746904398
  O         1.5529101474        9.2883812938        3.7855650823
  O         3.1268957739        9.7745303614        1.7317913171
 Si         2.5414219276        8.6271025934        2.6993005641
 Si         5.5585789763       10.7877985092        5.6462031465
  O         4.8350787325       12.2208223443        5.3506461331
 Si         4.2607145013       13.5647975457        6.0423052078
  O         5.3417507968        9.7824657192        4.3621056782
 Si         3.8764795962       10.9979445442        0.9955254504
  O         3.5360452910       12.4086373147        1.7187094916
 Si         0.7471269158       10.2886630652        4.7593672617
  O         6.4056845135       13.4768785855        1.2276635748
 Si         6.7689264018       11.9325165315        1.4820132001
  O         1.3875686509       13.1492592938        0.6676100616
  O         7.1462615932       11.0978394241        5.6453433514
 Si         1.9982385669       11.9036885458        7.0794449503
  O         5.3413645969       14.1930762618        7.0659501338
  O         7.1389686101       11.7450510434        3.0377692691
  O        14.7729702284       11.4219596176        3.8609381460
  O         8.0422557205        7.6384942370        0.3165865917
  O        12.0669493391        8.8676377497        0.7461236690
 Si         8.0451546290       11.3918891302        4.3218509154
 Si        13.5879232132       12.0091824541        2.9123623307
 Si         9.6104197144       11.8863769025        0.1771870963
  O        11.1625967978        9.3714326403        3.1858217987
  O        12.4836962857       12.8104225650        3.7835176589
  O        12.4725291829        8.5454065312        7.0738963737
  O        12.9864504926       10.7603663396        2.1379346689
 Si        11.0069957813        9.1671636861        7.2844674452
 Si        11.6347503594       10.0045310890        1.7913663458
  O         9.8583054279        7.4921623029        4.2641014343
  O        10.5163185414        9.6153081451        5.8059676827
  O        10.0355384518       13.4389187395        0.3260712923
  O         9.5386107135       13.7985477375        6.9674671160
 Si        10.0719952090        9.1068470548        4.3341833999
  O        13.8918565111       13.0564262634        1.7186719799
  O        10.8366267411       14.5348366993        4.8498120800
  O        14.5498901209        9.4446016725        5.7441447155
 Si        12.1398572048       14.3862483133        3.9207587510
 Si         9.4079415301       14.0064181328        5.3893219400
  O         8.0638647286       11.5875310812        0.5680042228
 Si        14.6709428611       13.7000444296        0.4836287013
  O         8.7928124627       10.0112113277        3.9470176921
  O         9.0332135131       12.6383780528        4.6133515354
  O        10.5240980241       10.9897701941        1.1548696809
 Si        13.6824795397        8.1315728624        6.1147759826
 Si         3.2700522098        3.9789284627       12.5530534857
  O         3.6895479157        4.1813859631       10.9888018446
  O         3.1153112096        2.3787608433       12.8121861200
 Si         2.2710484927        1.2346172137        8.9549102689
  O         5.2417952114        5.9751292209        9.5263408940
 Si         3.7579043702        5.3165248977        9.8250769790
  O         3.3589561529        4.6761583570        8.3816419757
  O         4.4512014327        4.7674479500       13.3083000509
  O         2.6255623658        6.3269989532       10.4183139221
  O         1.8847149869        4.6073251917       13.1349385179
 Si         5.9295628548        4.9079798741       13.9179047685
  O         2.2274741108        1.5635237664       10.5238619847
  O         3.7188521790        0.7426955192        8.5422582438
 Si         2.7649730910        1.0403297658       11.9559139587
 Si         6.4368052451        5.8312119271        8.3974272071
 Si         5.2434754883        0.5895037522        8.1724248182
  O         1.8856484131        2.5002587189        8.0453200571
  O         6.7380898947        4.2731574652        8.2079866135
 Si         0.6496603022        4.5469779934       14.1901877955
 Si         1.2343150841        7.1512973204       10.6085792257
  O         0.4907552221        7.0747511796        9.1972547101
 Si         7.1635398001        2.7947335464        7.8411370452
  O         6.0757111219        0.3308745821        9.5292515062
  O         1.3099619062       -0.0090649681        8.7113600356
 Si         2.1536579539        4.0025234743        7.5220311467
  O         5.8160418878        1.9585286666        7.5461738507
  O         4.1784679103        0.2521925462       11.8211827587
  O         1.5802492205        0.0874854554       12.5679463792
  O         0.8339722748        4.8394962940        7.7975910362
  O         7.1366751118        4.9336333246       12.8137569448
  O         0.1585040633        3.0138718635       14.3765659964
  O         0.0853272191        6.7322078943       11.6598114684
 Si         7.5885273994        0.7632416277        9.8789614847
 Si        14.6261102519        6.0063679458        8.2031586639
  O         7.8943602369        2.1463812418        9.1117254990
  O         7.8855301172        6.4973739675        8.7169891821
  O        14.1271165830        5.2480555642       13.5517453368
  O         7.9618583611        1.0618266943       11.4088904176
  O        11.0952844641        4.5166698526        9.6865716951
  O         8.9570685986        2.9558543361       12.9009076826
 Si         9.3336374186        1.6035293249       12.0932790227
  O        10.5074511478        1.8789164435       11.0091955073
 Si        11.6147428055        1.2286176795       10.0138523228
  O        12.5616164876        2.4528711192        9.4467061433
  O        13.4552905430        5.1676079066        8.9580313842
  O         9.8428888746        0.4148068757       13.0561715356
 Si        12.3492591487        3.9674640711        8.8294883034
 Si        10.8557328129        5.6331966747       10.8327931678
  O         9.6809941375        5.1744891339       11.8283647277
 Si         8.7242005561        4.5553217353       12.9628671913
  O        12.2430704326        5.9124211512       11.6545203282
 Si        13.5580802659        6.3526471889       12.5281060379
  O        10.2614240937        6.9028672932       10.0262224385
  O         9.1097836310        5.2300420985       14.3836618405
  O        10.8480741802        0.4978094902        8.7789916773
 Si         9.1315654282        7.4914765677        9.0257433701
  O        12.3918028892        0.0247291868       10.8209310754
 Si         9.7472375671        0.1775023703       14.6456424219
  O         6.0744431342       14.5369845999       13.6336769201
  O         2.8047208777       11.0872043190        8.2102659319
  O         5.8314428719        8.6979903477       14.1337968462
  O         6.0639823383       13.1081079806       11.4247046982
 Si         5.1301402558       13.9146345240       12.4875023325
  O         4.1734980033        8.4589335741       12.0696969277
  O         1.7430151299        8.6276842686       10.9938020888
 Si         5.5850134505        9.0535215435       12.5805659236
  O         4.1003875256       12.8313134841       13.0625207563
 Si         3.2252717087        9.2569938741       11.0162226819
  O         1.5548707119       12.2488144667       12.8043754181
  O         5.1772720846       11.4904543329        9.5505962722
 Si         3.0267604448       11.6492654484       12.9244113767
  O         3.1123450113       10.7625679217       11.5771412697
 Si         6.0466276807       11.5680777819       10.9412165921
  O         5.5795074658       10.6593809392       12.2418039662
  O         3.9406994821        9.2674673918        9.5397980753
 Si         0.6370270198       13.5303444022       12.5489707392
 Si         4.2875432276       10.5308606405        8.5707381599
  O         6.7297888251        8.4739239788       11.5944392998
  O         3.2848779451       10.8320374962       14.2852881114
 Si         0.1484889053       14.0192205230        7.9248224340
  O         0.5786054574       12.4963151259        7.5577988680
  O        10.4875106254        7.3779336836       14.1367616799
  O        11.4998353377        9.5366742320       13.0498439473
  O         7.4926728565       10.9141611601       10.6720007161
  O        14.6160263619       13.3943700286       11.1698368840
  O         9.8540255069       11.5165301311       13.4110128775
  O        10.3545642215       12.6771772753        9.1122022672
  O         9.0191927100        9.3570549280       12.2351799021
 Si        13.2788600146       13.5374706093       10.2964216085
  O         8.4736198589        8.7910414885        9.6831914982
  O        13.6187953775       13.9586131581        8.7993589825
  O        14.2906591223       13.4585935276       13.7194662141
  O         8.4678153834       14.3621100633        9.2821993003
  O        12.6301672556       12.0645816256       10.1117046706
  O        13.0649279902        7.5598903724       13.4677245405
 Si         7.9419918523        9.3939272790       11.0454869548
 Si        11.7877795688        8.3179317248       14.0521029354
  O        10.5941110982       10.8319196527       10.9276266776
 Si        11.2227837734       11.4405312368        9.5926370364
  O        11.1781348061       10.3485110471        8.3861076959
  O         9.9360167375        8.0382548642        7.7320942375
 Si         9.8308797738       14.0491162852        8.5134167413
 Si        10.2768149933       10.3392998188       12.4074635673
