216
15.263 15.263 15.263
 Si         6.2041293054        4.3949771004        2.7135342842
 Si         4.7050478062        1.7968134039        2.8860517878
 Si         3.4169328334        4.3880744107        3.5814103689
  O         5.9570948854        2.7890085306        2.5439007384
  O         2.7788146485        4.7670252808        5.0091214845
  O         3.5134815788        2.7724328900        3.4167093912
  O         2.6207728753        4.9266681342        2.2856531665
 Si         2.1960966869        5.4677041944        6.3469703971
 Si         2.0182834727        6.0681809147        1.3154669865
  O         4.9240198070        4.9982486083        3.4931318756
  O         6.4266347719        5.1671704776        1.2965424920
  O         4.3752196138        1.1036427517        1.4515975595
  O         0.7855781602        6.6735011944        2.1415784888
  O         2.1437529046        7.0538409396        6.0462103163
  O         5.0182926985        0.7025415913        4.0471945664
  O         0.7192323436        4.7897745498        6.6675362529
  O         3.0260973810        7.3151554781        1.2032111290
  O         7.5041278038        4.5122018932        3.6522296367
 Si         5.0580519874        0.9752968096       -0.0189858245
  O         3.1857012072        5.3249551238        7.6349267062
 Si        15.2685703777        3.3282690657        6.8419673580
  O        14.7976637936        2.7018025528        5.4152337527
  O         8.7372769426        0.7119032981        1.4530407750
  O         9.4649926124        5.4214415546        2.3764410414
  O        12.2446320460        2.8593790182        4.8468315087
  O        12.0923876206        5.4959253978        5.3249688345
 Si         9.0655532178        4.2400032816        3.3673061744
 Si        11.3165602445        4.0700553413        5.4839704901
  O         9.3679711247        2.8060244838        2.7073494775
 Si         9.5253871214        1.2103830114        2.7716646401
  O         9.9360223237        4.2869841765        4.6966465594
 Si        10.4345615782        6.6115778575        1.9483861174
 Si        13.4655937252        1.7807178330        5.1381767858
 Si        12.4675247882        6.7801332049        4.3919794726
  O        13.8235264685        6.4390488687        3.5694921743
  O        13.0386845364        1.0379347528        6.5088361855
 Si        14.4923695478        6.9875352712        2.2047729926
  O        13.9005180064        6.1211306904        0.9610363236
  O        10.8181234440        3.7297008521        7.0008598427
  O        11.3006500332        7.0749346692        3.2641939891
  O         9.9439280153        1.3590959635        6.6094496467
  O        11.3668190124        5.9660201127        0.8005474980
  O        11.0521675820        0.7173045895        2.5363334677
  O         9.0780490622        0.6260584309        4.2187457121
  O        13.8286887243        0.5492604325        4.1269573011
 Si        11.6471664222        0.2794408946        1.1012125038
 Si         9.4190438950        0.1207869309        5.7350955983
 Si        12.7113280246        5.4423563846        0.0959785671
  O        11.4580102891        1.5125206548        0.0685494689
  O        13.1992071754       -0.0838903473        1.2599071876
  O         6.6066481118       11.4387974184        0.8777573954
  O         4.2154531250       12.0800037086        0.3247134727
  O         5.5537979187       14.6413039017        6.4332014350
 Si         6.8913120602       14.0347970618        7.1172906801
  O         4.5963121059        9.5438999790        0.8653960131
 Si         4.7789643641       14.6622740556        4.9973931462
 Si         1.6293838238        8.5041967055        6.5112716158
  O         1.9485705433       12.6480045935        1.3269810654
  O         2.1526839978        9.7824360491        5.6602811135
  O         4.9312134011       11.2066392189        2.8060346344
 Si         2.8340170304       11.1793111811        6.1206711709
  O         3.1992346540       14.6298037310        5.3311619220
  O         5.3351486714       13.3435699611        4.2193555217
  O         1.9018077192       12.4718671200        5.8831705094
 Si         1.8422673645       14.0867667758        6.0152991123
 Si         5.3365744677       11.7125786890        4.2719963615
  O         4.2120652806       11.2913614970        5.3312281993
 Si         5.0865015793       11.0492629422        1.2158406115
  O         6.7229722242       10.9837036486        4.7807606146
  O         0.5545642284       14.6309988724        5.2432995321
 Si         0.3968520112       12.7969178315        1.7031652223
  O         7.0753942979       12.4620988260        6.8283289349
 Si         3.9738071385        8.1885474181        0.2442198057
  O         1.5932834925       14.6290752659        7.5075077497
  O         0.1580289110       13.9803039338        2.7812367972
  O         3.1033500484       11.1265344090        7.7156815218
  O         8.4161018367        9.9287876924       -0.0134349317
  O        15.3183024936        8.4293766514        6.1899705052
  O        11.0379125566        9.6248640241        0.3272718924
  O        13.0208908062       10.8070140278        3.0907725314
  O         9.0563196724       12.3996740913        0.1525111406
  O        10.9012964414       14.2214889612        0.5457444222
 Si         9.6343710522        8.8849898704        0.0549990329
  O        10.4911982438       14.1590283058        5.7940277908
  O         8.5778866534       10.2671791655        6.9049816404
  O        15.2694974146       11.2868345847        2.1463940330
  O        10.5735500577       11.8498024037        7.2315357216
 Si        10.4544458218       12.5435468526        5.7588436958
 Si        14.2724754724       14.8193605118        0.1072506379
 Si        14.0627471797       10.2067831734        2.0250989171
  O         9.5455048321        7.7916234349        1.2622145136
  O         8.0887312149       14.8607707455        6.4455149599
  O        13.8326201497       13.0521042956        4.5210798766
  O        12.8003517131        8.0875131358        5.3163541562
  O        13.8416199125       10.5675368621        5.4760767409
  O        11.5988353450       11.9237069708        4.8561011614
 Si        13.8490883417        9.0721375914        6.0881286873
  O        14.3168474931        8.6131101179        2.2286748935
 Si        14.6699939475       14.3933089062        4.1583381581
  O        14.8682001111       13.3528317479        0.3988688205
  O        13.5041954163        9.3042110322        7.6223254297
 Si         7.8319635472       11.3752124411        5.9061523839
  O         9.0464580979       12.0859613504        5.1079821901
  O        13.5271291289       10.3366382640        0.5405546076
 Si        13.1127778026       11.6096957043        4.4864222423
 Si         0.9930438847        5.0760853298       10.7585461732
 Si         4.5420919044        3.5986204889       13.5021814526
  O         0.9530326671        5.0841736703       12.4016125704
  O         3.1715705118        3.2477488522        9.1419961412
  O         5.0961612149        3.4235086211       11.9945192161
 Si         5.9360713618        4.2533279692       10.8729360947
  O         2.4533533582        5.5573153730       10.1831704674
 Si         3.4918159162        4.8263958148        9.1513197292
 Si         1.5578460000        4.4700624048       13.8019870230
 Si         0.7749488962        1.5716295165       14.1016430894
  O         5.0093477717        4.9201270321        9.7033584735
  O         2.9831612733        3.8966479209       13.3605036825
  O         6.5849500843        5.4933830936       11.6781203970
  O         0.7932846749        3.5825911255       10.1016420519
 Si         1.6963605993        2.6117986268        9.1433453900
  O         1.8256647109        1.1134357268        9.6221911302
  O         7.0682692328        3.2625340758       10.2577064941
  O         5.1618531313        4.8390932314       14.2958077040
  O         0.7205431761        3.1704713706       14.3083309564
  O         4.8487023460        2.3107360793       14.3880573644
  O         2.2475419861        0.9580857500       13.9884131325
  O         7.3231298148        6.2098038666       14.2205028830
  O         1.1228797086        2.4769301772        7.6322765082
 Si         6.0471507924        5.8626461578       15.1421225987
  O         1.6664303060        5.4803835887       15.0869987623
  O         0.0686484070        0.7896801660       15.3377653259
  O         6.6048147504        0.6358909506       15.3531794272
  O         5.2472231461        7.2419788149       15.2581562614
  O         7.6398851481        0.6505214572       10.3299432869
  O        15.0890222790        6.0529476422       10.1667285424
  O        15.2712597338        1.1839740377       12.7306101757
 Si         7.7569184881        5.6550688423       12.7671275584
 Si        13.1526414357        1.6662062913        7.9913032673
  O        11.6775714196        1.9014272407        8.5896581378
 Si         8.2555091553        2.1513998103       10.2586263810
  O         9.1481094582        2.4548272242        8.9111137918
  O         8.3461636216        4.2104180968       13.0356418018
  O         8.8336587037        6.5945987860       12.0791646394
  O         9.1453737944        2.2322271056       11.6170647136
  O        10.7139931023        3.2520516392       13.5117453877
 Si         9.2022620342        2.8825509378       13.1027984262
  O        12.8622131495        1.9061457407       13.1298035521
 Si        11.9780731967        2.6338239122       14.2827618368
  O        12.8096008721        6.0398012504       13.8865244721
  O         8.5218234305        2.0527540424       14.3076861872
 Si        13.7602233610        0.6209284613       12.7074606424
 Si        14.3024623045        7.4537371252       10.4523931193
  O        13.9172054060        0.5459401416        8.8444736536
  O        13.9727764763        7.3934306310       12.0147151781
  O        12.7201986485        3.8261586415       15.1171090316
  O        13.9306210318        3.1020401150        7.7910253478
 Si         8.1787676450        0.7611958017       15.1997586063
 Si        12.7329144254        7.3653393758       13.0079440168
  O        11.3843434590        7.3031941726       12.1521145012
 Si        10.3403361914        2.3792416212        7.8021182537
  O        13.5168481343       -0.0787717909       11.2860662029
  O         4.4509466890       15.0194427586       14.3942142505
 Si         3.0474349580       14.8696225898       13.6387274325
 Si         1.7218272332       14.8653989411        9.0870519219
  O         2.1374770408       10.9634638398       14.4709794708
  O         2.3857888985       13.5081123596       14.1678462022
  O         3.0207924637        8.5189657827       14.2231504221
  O         5.3120795247       14.6894695648       10.6681271204
  O         3.1740633208       14.7261308618       12.0573283813
 Si         6.8514448582       14.5115651807       10.2646667973
  O         3.0939684367       14.1551487499        9.4582847318
  O         1.2109294320        9.6237908076       12.4113334831
  O         1.6698067092       10.5885978859        9.9256859235
  O         3.7406569683       10.2022613006       12.4632943071
 Si         2.4948695705        9.8142304103       13.3929538326
 Si         3.8804978468       13.9823887681       10.8300856944
  O         3.8158621523       12.3987553860       11.0533806983
 Si         4.3627776807       10.8944100487       11.1598917511
  O         4.0684184920        9.9549069530        9.8495136965
  O         5.9104467749       11.1231485878       11.4411217303
 Si         2.7626901262       10.0550240100        8.8691261354
 Si         0.5883676722       10.0095324859       10.9597882656
 Si         7.1543658787       11.9286380944       12.0437815437
  O         6.9126656845       14.0787433384        8.7179500365
  O         7.3884864415       13.3592995773       11.2936991983
  O         7.1572187991       11.9260766715       13.6692369408
  O         0.4733698286       14.3058014074        9.9363401848
  O         2.1589664569        8.7654600045        8.0483207992
  O         0.0727704786        8.6649162031       10.2528372643
 Si         2.6747484795       12.3022888533       15.1945341091
 Si         9.8569629080       13.6266833209       14.7380847184
  O        12.7981050716        8.6828060837       13.9159462123
 Si        12.3778236379        9.9645172079       14.7815404570
 Si         9.8683340606        7.7734587748       12.3114134801
  O        12.6447940504       12.5597712781       11.6852836164
 Si        11.5197958155       12.0525083163       12.6957186981
  O         9.6982266636        8.2688843763       13.8315332472
  O        14.7127059256       11.1390948925       11.0611972096
  O        10.8041308545       10.9668339504       11.7666697233
 Si         9.8891524583       10.5237343668        7.8840477418
  O        13.5865058263       14.7875169268       13.9014377050
 Si         9.5743334541       10.4044502496       10.9227361671
  O        12.9465672441        7.8822632993        9.6224042782
  O         8.8103592365       14.7885965813       14.3831256511
  O        10.9721985843        9.3040871796        8.1155054350
 Si        12.4668418875        9.2411334308        8.8142153415
  O        12.6250980371       10.6007602172        9.6993213513
  O         9.4566512637       10.8833680430        9.3933317668
  O        10.5721956509       13.1878109617       13.3456097794
 Si        13.3878980031       11.8317485985       10.4433650400
  O         9.6144433585        8.8189795297       11.1162297886
  O         8.3423351136       10.9652375232       11.6993027129
  O        12.1739566005       11.2800720885       13.9173992373
  O        13.5843455366       13.1330154142        9.4804310519
 Si         7.8086060153       11.4218209744       15.0812603579
 Si        14.1534844593       14.6096460867        9.9005302550
