216
14.861 14.861 14.861
 Si         5.7541075403        6.1622345771        5.0120484406
  O         6.1058649629        3.2217869741        1.8998605921
  O         5.9479633766        4.9687376775        3.9552154930
 Si         1.1772838343        1.8140275178        5.8390824824
  O         2.3206128479        6.0896168240        6.1978994497
  O         1.6546623053        3.3548637682        5.6347427829
 Si         4.9615250201        3.3481007320        0.7418804372
  O         4.2810225497        6.7682279172        4.7920088453
  O         6.1056107261        5.7032450625        6.5323181361
  O         0.9909223214        6.4499104625        1.9781967097
  O         1.7593286340        0.6575918152        1.3296945754
  O         2.2210854748        0.8177515188        5.1107930796
 Si         1.5740180588        4.7181496678        6.5227291669
 Si         6.9120525370        4.2895282689        2.8419601253
  O         4.4651091149        4.8668547532        0.9135916150
  O         3.6563853041        2.4067338616        0.9026366282
 Si         0.3280272351        0.3089931714        2.0116155413
 Si         2.8631921225        7.3008798949        5.3105313321
 Si         2.2974701224        1.7797132020        0.2868188631
  O         0.9888551907        2.7274201230        0.0042181877
  O        -0.0057953387        5.2056915313        6.3357158257
  O         5.1195810817        7.3590159970        0.8276415853
  O         1.1739541879        1.2545231337        7.3624383535
  O         7.5947530749        5.4491842120        1.9081195926
  O        14.3579898740        4.2995008823        1.4048916193
  O        14.3548012358        1.6852227892        1.8301125610
 Si        14.4348805585        5.7092272024        2.1379049922
  O         7.9932223202        3.4745231015        3.6915592804
 Si        14.3761806151        2.8594699357        0.7084430094
  O        14.1910417648        5.4420204937        3.7174126483
  O        14.5505454545        1.7408171232        5.2059210281
 Si         8.4871887062        6.5467621689        1.1074445773
 Si        12.9509348739        1.5735271919        5.2255619517
  O        10.0848733667        4.0394904800        5.1110635055
  O        12.3094159235        5.3549928118        5.6052410753
 Si         9.1040204895        2.8398221877        4.6400676335
  O        12.3821844378        1.3950003203        3.7189535338
  O         8.5147765413        2.2214471636        6.0232201628
  O        12.2219700245        2.8093195386        5.9495750676
 Si        11.0731953600        1.2764043926        2.7540441422
 Si        11.3677865971        4.1627923051        6.0748040264
  O         9.8432408575        1.7295563268        3.7147896612
  O        11.1494822276        2.1491562033        1.3966389405
 Si        13.7974825637        5.8300134257        5.2427045722
  O        13.4593728316        6.7708136629        1.4130084709
  O        12.6344707217        0.3343044249        6.1925512284
  O         9.9085730316        6.8682471881        1.8120397932
 Si         8.6645124211        1.0008644940        7.0838687530
  O        10.1112495690        0.3219316089        6.8457733163
  O        13.5521484643        7.4348209485        5.1943241881
  O         6.6849065636        7.4378422384        4.6962877237
  O         1.8103490646        7.5174571588        4.1372821631
  O         0.6590670551       14.5378989732        3.4565744927
 Si         1.4813727094        7.8454828747        2.6121654017
 Si         3.6614417147       11.2658644150        0.4253789790
  O         6.7673396337       13.2889707306        0.6532108414
  O         2.9760579603        8.7377605654        6.0167975536
 Si         1.9019293282       14.2412806921        4.4407603559
  O         3.2241208139       13.7713956898        3.6310773205
  O         2.8173049284        8.1867985080        1.8299531209
  O         5.1194176697        8.8487063552        2.9747287753
 Si         4.3500560378        8.5439923699        1.5854707023
  O         5.5699470968       12.5393048682        2.7176746535
  O         6.2078847442       12.4677157178        6.1030695686
 Si         4.0424046948       12.4452526783        3.1929133647
  O         4.1291084796       11.5617383789        4.5403496625
  O         4.2943855958       10.8151509641        6.9436505719
 Si         5.2193172675       11.2408272082        5.6994950622
  O         6.1035627861        9.9837920932        5.1986486724
  O         3.2906013439       11.8074454417        1.9116853563
 Si         6.3383284726        8.8717446221        4.0544856951
  O         1.4006489246       13.1372328343        5.5268186031
 Si         0.7027381675       11.7117620040        5.8830990941
  O         0.4058113491        9.0789731423        2.5748024250
  O         4.2760582916        9.7944443280        0.5833776838
 Si         2.9260536329        9.9594990607        7.0675042482
 Si         6.9209957063       12.2215830047        1.8915317271
  O         1.6384677927       10.9107965237        6.9330759456
  O         0.7384839823       10.8093674162        4.5452926390
  O         7.2667494395       10.7262253032        1.2383140950
 Si        10.7867993387        8.2353608540        1.8872703510
 Si         7.6093206885       13.2114845349        6.5026970240
 Si        12.4123747082        8.3859844433        4.5405639400
  O        14.1163768015       11.5628621974        2.6290584740
  O        14.2148352011       14.0407293930        1.4099772706
  O         7.6810097226        9.2558067682        3.2953321088
  O         9.2514179542        9.3298092753        7.1050059283
  O        11.7992549013        8.5753683389        0.6656321025
 Si        11.5746118414       14.7009169832        7.2937719963
  O         8.0119080965       12.2995030155        3.0555917956
 Si        14.5522065270       10.2570469151        3.4573072416
  O        10.8938616981       14.6581200156        2.1603907726
 Si        12.5681777543       11.7396567278        7.1311104356
  O         9.7357533635        9.4935585273        1.8168807691
  O        12.1782402872       12.5348426784        1.1563255488
  O         7.4963679771       14.8142942492        6.6743208102
  O         9.4980899487       10.5786718391        4.7834741950
  O        13.2164574915        9.7459704164        4.2083584826
 Si         9.2086346313       12.0316474683        4.1106711746
  O        11.7993237672       13.1293442697        7.2672203960
  O        10.4716068255       12.3819641895        3.1471332493
  O        14.6225278271       11.8853870998        0.1620840884
  O        11.4762534986       10.8143126960        6.4302055338
  O         7.7625606895        8.0129830948        0.9861291477
 Si        10.7896030366       13.1175557895        1.7239433722
 Si        13.7676385552       12.4966260849        1.3730492548
 Si         8.1070022885        9.4073479619        1.7617514436
  O         9.7386067113       12.9464071729        0.4778389014
  O        14.0373100815       11.8831756008        6.4364598227
  O         8.7557298573       12.9492132553        5.3778206546
 Si        13.0756639865        7.7273055280        0.1767541769
  O        11.7211130717        7.9473479272        3.1580890480
 Si        10.3026376119        9.8219590495        5.9772698135
  O        11.1428206234        8.5219590142        5.5265875381
  O         6.5147436866        5.7003649370        9.2331643589
 Si         6.2402838764        4.2543937555        9.9619730272
  O         5.9526540500        4.2967007887       11.5739701952
  O         4.9201213562        3.7157833112        9.1580189844
 Si         6.4156624502        4.2506095589       13.1437417008
 Si         3.2958656056        3.5708134964        9.0612455512
 Si         1.8818363442        5.7709164342       10.3468179205
  O         6.0290799664        5.6986712348       13.7954962328
  O         3.0471453715        1.9756245442        9.0777887448
  O         2.7223283457        4.3836467727       10.3325047009
 Si         1.8300938420        0.9377238185        8.8052818389
  O         2.7102298211        1.1460600012       13.7088599145
  O         3.4644147404        6.2609726983       13.9505051138
  O         2.2281528970        6.5196279907       11.7172315204
  O         0.6596850523        1.2284364690        9.8394913125
 Si         6.1213020082        6.5784549638        7.9126633929
  O         5.6095649105        3.1993404904       14.1060644556
  O         2.4051597686        6.8474379063        9.2583551850
  O         0.4173134798        0.9855598028       12.4654041637
  O         0.3297747649        5.3810268824       10.0695544446
  O         4.6203444476        7.1797268596        8.0060862875
 Si         1.6909058492        0.1284759634       12.9657694153
  O         2.3886681103        4.2111175813        7.8525984357
 Si         2.8937907122        7.3264068415       12.9291626376
 Si         4.8013627692        6.0812910188       14.7896878207
  O         7.5958882324        3.3852066025        9.8341812709
 Si        14.6167694580        1.5446750696       11.1104305662
  O        10.4783113558        3.8709060323       14.5307802705
  O        14.4421145528        3.1304687649       11.1481108775
  O         7.9983156598        3.8935347337       13.2875106678
  O        10.8925101108        1.5773665103       13.4741670391
  O         8.5927745781        1.4025370398        8.6559231579
 Si        13.9083301880        4.5289833591       10.5980375348
  O        13.2929963931        5.2696488782       11.8743286261
 Si         9.3726400633        4.6818156867       13.6835286933
  O        10.1469752639        5.0592060951       12.3191758236
 Si         8.8698151349        2.3801572435        9.9292032878
  O         8.9930735412        1.6527474821       11.3975689217
 Si        11.1083486663        4.4071891020        9.1746474842
  O        12.7120741712        4.3708732602        9.5013938536
 Si        10.2375435481        6.3130811115       11.3121415119
  O        10.3044885559        3.1249447419        9.7424935775
  O        10.3990132286        5.7065075587        9.8248954332
 Si         9.9669107643        0.7656570683       12.3881720567
 Si        12.9235373869        6.7543888027       12.3125590167
  O        13.2167792937        0.8251614846       10.9069767101
  O        12.6308748657        6.7001105692       13.8815625903
  O        11.5698870820        7.1984984067       11.5609198346
  O        10.9028019206        4.4477449038        7.5859072679
  O        11.8035493058        0.3344999815        8.8154680911
  O        10.8758292221       -0.0187475553       11.3199034432
 Si        11.4068189883        2.5495429318       14.7002882915
  O         8.8458532942        5.9492573343       14.5234667884
  O         8.9186711201        7.1725615614       11.6473353223
  O        13.0429140715        2.7262913231       14.6160500747
  O         1.6324134050        8.0170932153       13.6286085993
  O         4.1307386072        8.3438161894       12.6388737418
 Si         3.6012232666        7.9096051611        9.0214045412
  O         2.8880179196        9.2490024654        8.5011967077
  O         2.3130664945       14.2074261754       11.7182187089
  O         2.3103420801       14.2646557598        9.0899952421
  O         4.5406476866        8.4130082534       10.2182831966
  O         1.3215271211       13.9433237466       14.1452361164
 Si         6.2610032432       12.6761769715       14.0417627511
  O         5.7013925099       13.1220547370       12.5532513308
  O         4.0451265127       12.7939255529       10.4831358610
  O         5.0390584464       10.6575395586       11.7147037260
 Si         5.3251864226       12.2033102503       11.2491756627
 Si         5.1292996179        9.0443645393       11.5677539605
 Si         2.5305913654       13.3025724929       10.3978733612
  O         1.5660188778       11.9713943017       10.4046371515
  O         6.4989930700       12.2353468985       10.1558071068
  O         6.7150227906        8.6639555641       11.6225947058
 Si         0.9809201265       12.3716937270       14.1081456959
 Si         0.5086318658       11.2435790798       11.4186904183
  O         0.8306052393        9.8285634156       12.1370322589
  O         0.4119783189       12.2817152512       12.6204526323
  O         4.8921352292       11.9798823339       14.5432835138
 Si         0.2587881453        8.6121728374       13.0432738673
  O         2.3030943877       11.4779050217       14.4334644000
  O         7.1112765702        7.8422300895        7.7506677511
  O         7.7650577780       12.2186625512       13.6158261271
 Si         9.2056933929       12.9707462465       13.7868462107
 Si         8.1084703502        9.0192671302        8.1992944082
  O        12.5632829189       13.1671648709       10.3080462439
  O         8.0827433425       12.7800968730        7.9966762532
  O         9.1600632186       14.5260102227       13.2840529496
 Si         9.8609908723       11.1658420234       11.4385245968
  O        13.9356685227       10.9909125801       10.7981252111
 Si        12.6025580855       11.5666763586       10.1376329300
 Si        12.1125220209       14.7066672898       10.3204767172
  O         7.3402042354       10.4065609152        8.5108611397
  O         8.9998994120       11.8040969095       10.2246191719
  O        14.1829854030        8.7441323120       14.3807943956
  O        14.2074861955        7.7006288751       12.0494635726
  O         9.0835758877        9.8216084068       11.8946527416
  O        11.3192980336       10.8880560176       10.8213477417
  O        10.0845867216       12.1328705115       12.7163024421
 Si         7.7304827902       11.8109443678        9.2290812130
  O        12.7275815909       11.1416220638        8.6025715536
  O         8.6702127746        8.5965942457        9.6459610050
 Si         8.2900263126        8.5866416123       11.2174352716
