216
14.888 14.888 14.888
Si      2.350396635200016      0.567374401400013      6.280845487699995
O       2.650627774999998      1.988205865700003      6.959995673200002
Si      2.048839662900009      0.345799665700015      3.303699711799986
O       0.827302243900006      0.167221189899997      6.701442488999991
O       2.402009462200000      0.907483111200005      4.737782383199986
Si     13.848493240800007      4.910200417399997      3.123173507499993
Si      0.947426313800000      5.673094158900023      7.643541805600004
O       1.497213131800003      4.215851800700005      7.944260351699994
O       3.499841540600007      4.863353906900012      4.548477808199994
Si     14.855202227800001      0.615187223400011      8.012886752999988
O      13.267044476900002      0.818465837700011      7.775957819399991
Si      1.963620180299999      2.733120079800011      8.208472966199988
O       1.084511066800020      1.401927812300005      2.566656211599999
O       3.477246805400002      0.085376334600001      2.653256025999995
O      13.220678263900000      4.047984280100003      4.303241293400004
O      14.233083723799991      5.785068269600019      7.943275645899994
O       3.480059269800011     14.371613242299992      6.697991347899984
O       0.594512913000012      1.979943675300002      8.600342469899980
O      14.815069606199989      3.868878313300012      2.399609853899988
O       1.492511299700015      5.951425808500023      6.130454084199987
O       1.338251810399997     13.808422596200002      3.474779428699993
Si     12.672771573300009      5.282084284999998      8.037482093899991
Si      4.858664335900019      4.908787570899998      3.643401759399989
O       4.640726648300011      6.018141569600023      2.489957674899991
O       3.159229571700015      2.728445068900009      9.266998092999984
Si      2.760467962000009      6.176287562600016      5.150812724399982
O      14.558809715700001      6.200474339300010      3.807288132599991
O      12.742722542700021      5.451976839400023      2.078324702999998
O      12.413158724800020      4.479139510699999      6.696520917999976
O       5.141467073500003      3.465206146099999      2.979551257999987
Si     11.996234141700018      3.869463424400008      5.303109059599994
O       8.198527566000019      1.816453715399997      8.362790027499987
O      11.908469408699997      0.171468087300001      4.141599479699995
O       5.557391842600024      1.568533750299988      8.267950747999979
Si     11.753134037100018      0.267479506200011      7.982789654299989
O      11.015294202200000      0.069278652100010      6.560333453300001
O      11.749295496800009      2.320087028499991      5.538830705899994
O       9.445169543400002      1.397438252199985      4.880360407099997
Si      6.275224148400009      2.437371795500008      2.441342107099988
Si      6.964482475800007      1.089515629600005      7.621784489099985
Si     10.981644786999999      0.959579589400008      5.213781408699994
O       7.194568371600004      1.893422433100010      3.634790267399982
Si      8.003092525999998      2.148520151099998      4.990573183099986
O       8.103327660300007      3.725332818100019      5.384225232699997
O       7.030928212700012      1.493329729399998      6.082774180600001
O      10.692202222300004      4.620408580000024      4.716651297399986
O       7.205302934800013     14.376417979200012      7.605452964499984
O       6.133995853300005      5.289477033400006      4.566725569799999
Si      7.507226559900006      5.238519123099996      5.406213846999993
O       7.352250233899998      5.868139912600027      6.925259231100003
O       8.601006088800009      6.184287365300012      4.645897792500007
O      10.750153063200008      1.158972826300012      8.871034716799995
O      11.518717082300011     14.139258385300012      1.828995870299989
O      11.925528977600008     13.786679892199997      8.780734064099979
Si     10.209622804600006      6.158352666600012      4.611505520099993
Si     12.308471307100007     13.809970746699994      3.190051122500002
O       5.554739599300014      1.265364803100003      1.589388533100010
O       1.741606392799996      6.687830950100009      8.604244045399987
O      13.821561034600002     13.484685293500013      2.738591199099986
O       4.225394776300006      8.604139580600009      2.313717411900006
O       2.189901900800019      7.018786752400002      3.911319360399990
Si      3.652963738300013     10.097709565600013      2.287433738600013
O       4.464498765300019     12.897349255399995      8.678737213799995
O       3.961517945100014      7.021710595500002      5.783533024599988
O       4.313060385800010      7.361560026300008      8.282250268299997
Si      4.173490690900009     12.960285108899996      7.093034028899986
O       0.414992674800002      8.837558305700011      3.644091773699987
O       2.702169660400001     10.267553779900009      3.573023454499999
Si      0.740596800100012      7.293146363500002      3.301410000099997
O       0.336479853800019     11.412974085900013      3.730973647699988
O       1.423938406800004     10.010747438100001      5.796976740799982
Si      1.215862226200019     10.138480119900013      4.196012247899995
Si      2.540128905900013     10.297663202400003      6.939274883599989
O       3.892570391700004      9.429898815300014      6.776845815299994
O       3.063512426000001     11.821717109200014      6.785520728099987
O       1.830661921200002      9.929775937000009      8.368228257999986
Si      0.359971063100015     12.736659206100011      2.801134418899996
Si      4.634613996400008      8.009712197599999      6.839848990699994
O      13.151637458800003     10.743955943000007      7.510292218799991
Si     13.504564422800010     10.956783242900002      9.077289164599996
O       4.896961653900012     11.094029965800006      2.312873962900004
O       0.828551764200008      7.025661376100000      1.737075091200006
O      10.848174750399998      7.018945577599994      5.789603062499982
O       7.936401863399996     11.907077428800008      7.626827987299992
Si      7.216331936900015     13.025759808800000      6.691379229899998
O      11.525013140199995      6.425830202800008      8.201675757599974
Si      7.443999999999999      7.443999999999999      7.443999999999999
Si     11.237297566400006     10.995374048400002      3.922394890899991
O       6.226602039300018      8.096685179900017      6.532031494399998
O       5.629915528500018     12.733676311899998      6.376621129400004
O       5.474974989400014     13.559072890299998      1.740307355000013
O       7.146983794099996     11.993014464700003      3.148693020799996
O       7.033508775600013      8.261950403500000      8.795510169500002
O       8.100663288500019     13.062438890000005      5.304241665400003
O      10.445838353200008     11.242231650300017      7.357443806799989
Si      8.522422104000016     12.477743633100006      3.833099617199982
O      11.909273728600013     10.178393764300004      2.671380856600007
Si     11.686444953999997     10.306430502200012      6.904524751899995
Si      9.251385406000006     11.414383868400005      8.432278357099991
O      10.833196303699999      6.858893587400005      3.326056724200006
O      11.833811853000014     12.486519114800000      3.968256800399981
O       9.607601961700020     11.242973607600003      3.889852229099998
O      11.673638593900018     10.255660814900013      5.292757397400001
O       9.069109766300018      7.615734741400008      7.518397406399991
O      11.418630683700020      8.856798365500010      7.528651447499985
O       9.180785967100009     13.643188966200002      2.890621742399993
Si      6.097226972000021     12.089742473600010      1.934444635799998
Si     11.515372527200007      6.479589027799994      1.935804108100005
Si     10.672043273900016      7.470256894699999      7.307154313599989
Si      1.804853233400011      4.055434437400018     14.374167220099995
Si     14.309632154400001      2.341041313900000     13.824651969199985
O      14.391050200200006      1.069843037099990     12.832894159499977
O       0.672694978800002      3.314007247700006     13.472864006400011
O       3.320334133200011      3.967153512000018     13.897607203799980
O       3.727277745300003     14.802808620599999      0.161431785599980
Si     14.849462929300012     14.416051586200014     12.886197377599999
O       1.318718063700003      5.584946394100008     14.471710185599999
O      14.485701593300009      1.983533553500001      0.512317464200004
O       1.835674963100010      3.298051723800022      0.909269127600009
O       3.795090568500021     14.462491809099992     12.569613053299996
O       1.346121971900007     14.468092952599994     13.739342366699992
O       3.733180515200005      5.773862366200024     10.177994452099984
Si      4.757639555200011      3.543932505799990     13.340518344199994
Si      2.916402902200014     14.053508982900007     13.877068477799986
O       4.554855118700019      1.164291779100008     10.565145217499975
Si      4.707819251800014      2.303622024499991      9.438937139599984
O       4.715929659100015      1.983029222000006     12.993515548200005
Si      4.858326949500015      0.696187369400005     12.058524797199986
O      12.833193581400026      2.977520013800021     13.664065910299994
Si      4.583494024400005     14.870535835100009      1.521512261299993
O       4.979134630700002      4.536131338899998     12.114760839100004
O       0.264759715000017     13.718529383900007     11.483109988499985
Si      0.582560917100012      2.609896801400013      1.644386621999995
O       0.334050392600006     14.403290766400007      9.086631185699986
Si      5.120178931000003      5.063185415200016     10.622368698999979
O       5.461783925000010      3.716236347200013      9.763401021199984
O       7.365575110300006      3.157085509699996      1.506350113299987
O       9.776222066199994      3.210058307700007      9.925936677300001
O      11.833235778600011      2.724798266400004     11.337493152799986
O       6.391896707799996      0.239491459699996     12.008248879899979
O       6.022957124100015      3.723171563999995     14.307413766199980
O      10.335417514500001      3.905493420700009     13.070811174299996
Si     11.431827733600006      2.720610754500005     12.912072824100004
O      10.680600118500003      1.407505869899995     13.482751822099983
Si      9.239365723299997      0.889279433300006     14.030441121399997
O       8.697276534299998     14.644484154100001     13.003370507199993
Si      9.991585965300011      5.321267952700012     12.327265468699981
O       8.696265751000000      0.665585411899997     10.588891717199997
O       8.205194148300006      2.140763722599999     14.142056055599996
Si      7.515716145100003      3.439784466100009     14.828835876399991
O       8.360137973599999      4.791529793400018     14.640339722399997
Si      7.859230101400009     14.588507878100005     11.618986496699979
O       9.419038755100011      0.169704422100006      0.582008433100002
Si     11.248297358900006      3.846351341300007     10.316490489599996
O      11.003713709600015      5.276009020800005     11.077279780500003
O       8.514419002299997      5.601552337900020     11.731676347399992
Si      9.347439921800005      1.690301405199987      9.479737400299998
Si      9.980834589200017     13.851678619800007      1.483501797699991
O       6.289539762300020      6.188954760700007     10.599654651699995
Si      9.281804460899998      6.093725624899998     14.854103681100003
O      10.362496814500018      5.775680377100022      1.083035313299996
O      10.102328153900011      6.437499617000007     13.486656652199997
O      12.340431848700012      4.201790323599999      9.196850724699996
O      13.561911395400006     13.557041736200011     13.406130393499984
O       2.735112048900000     10.415752841600012      0.990466911899991
Si      0.718689734800009     13.207403093099998     10.035386746399992
O       2.324547168399996     12.969718721800007     10.171426269799998
O       2.749141234300004      8.269295962300014     10.261272594399985
O       1.153847915900012     10.177299584300018     11.083606456899986
O       3.153585300999993      7.108854960099993      0.503722073499990
O       0.844913642500013      8.176837639100013     14.411530357899995
Si      1.561919503600001      6.986551009300005      0.317923152799986
Si      1.815316476600004     11.517491752000003      0.241472113099991
O       2.805964151400007     12.471626601600001     14.250587360699985
Si     14.730297621499997      9.417760798399996     14.235255901500000
O       0.761393004500008     10.755967736799999     14.170971802299992
O      14.151860427200001      9.171024679300015     12.738180350999990
O      13.583068059399997      9.670613448700010      0.489449194499992
Si      3.816856636899999     12.312154975999997     10.032987073099994
O      13.825784756700024      9.663006406900010     10.010958085799981
O       3.551445771400010     10.727554670600011     10.086966691100002
Si     14.438759190300001     10.099496777600002     11.453956804299985
Si      2.259653798600016      9.772162624800014      9.952912655999977
O      13.674855728400015     11.469081727100011     11.909058141599992
O       0.927678007200016     12.333938477300007      1.333068840300009
O       5.039033817000022     12.489434221599989     11.079281385500000
Si      3.142235448699986      7.009357786900002      9.335635484299997
Si      4.431063335200018      7.247466611400006      1.480236759199989
Si     12.629149428300016     12.519617145500005     12.556226745199995
O      14.738928989899996     11.988561274200007      9.364334395499988
O       6.790479626700007     10.520199712500011     10.446886860399982
Si      7.410669562400019      6.779735872600003     11.615093606499986
O      11.748887946500018     13.249840366200001     11.381862710400002
Si     10.358105762300010     11.335912631800007     14.491545847799998
O      11.511813631900019     11.826064062700011     13.486044655000002
O       5.732536014200003      7.348958578600001      0.564268736899990
O       8.029652312300017      8.194308402399999     11.081814702699988
O      12.009183842200004      7.860912545100004      1.317743772600011
O       6.946429950899999      9.386456897099993     14.393374638799997
O       6.883254925100001     11.733374285100000      0.575079802800003
O       8.346263708100016      7.349342387600010      0.326370137299994
Si      7.351513517500018     10.912155587000010     14.157688821799999
O      12.085539809700000     11.402721753600002      9.681384391399986
O      10.003311107300014     12.472287706800014      0.675229100499987
O       7.614158454300019     13.065680979299994     11.090785648199979
Si      6.515800955000012     11.872025607399999     11.340615678099986
O       6.545998333100015     11.491088215500007     12.901417129899992
Si     11.331387416000007     12.788490204600008      9.885494887799991
Si      7.688483672400008      9.261959945800012      9.895472107999979
O       8.935643408699997     10.996023658600004     13.815820976599998
O      10.927544763800016     10.011780236000018      0.320019601700000
O       9.777347193400010     12.499944477500001      9.528697914800000
Si     12.132709967400011      9.454177054100020      1.225045430399992
O       6.792128020100002      7.103354786400006     13.072300594499996
Si      6.946401743500005      7.799478858599993     14.522275091400004
O       8.942150992300002     10.009748990300007      9.187430628899984
