216
14.906 14.906 14.906
  O         3.3068660787        5.3852126907        5.7141696501
 Si         3.5058584618        4.0470476515        4.8036369420
  O         5.0278342084        4.1031932250        4.2280454347
 Si         3.6124570606        6.2984007855        1.2340251536
  O         2.8442321988        4.8863471903        0.9378404015
  O         2.5792177006        4.0580120896        3.4764609397
 Si         2.5944526633        3.5935893317        1.9193441252
 Si         5.8264965327        5.0434819219        3.1665875915
  O         6.7011780340        6.1228840500        3.9814804152
  O         1.1009628271        3.0561065213        1.6531805026
  O         4.8629524636        5.8529121030        2.1577692456
  O         3.1322815561        2.7494254859        5.7242091163
 Si         1.7899006492        1.9540117072        6.2383307090
  O         3.8159156326        2.4968055100        1.7286367467
 Si         4.1785456186        6.5513957485        6.4479295676
  O         6.8645730848        4.1553199607        2.3326395868
 Si         4.6407388732        1.5664037863        0.6498407382
  O         0.5807761457        2.7340238215        5.4745834310
  O         2.0789655562        0.3612741190        6.0442683864
  O         0.2379504172        0.8187869935        0.7384615957
  O         6.2598777390        1.6583103132        0.3995273884
  O         0.4847845632        6.7174001022        3.3983855257
  O         2.6518665479        7.2864575297        2.0647976389
 Si         6.6904774436        0.1197682883        6.8118985414
  O         5.4563309008        1.1504034179        7.0410460569
  O         4.8832720757        7.4511924668        5.2948480778
  O         4.4723576374        0.0064534145        1.0752236544
  O        14.8282676803        4.9080960726        7.1277323985
 Si        14.7193659960        2.3438668956        1.0050991970
  O        14.2489958079        7.1075263253        5.8793436388
  O        14.1563211196        4.8138566499        4.6289511689
 Si        14.4188995797        3.8802989028        5.9225377797
 Si        14.1844457207        6.4162794233        4.4161342355
 Si         8.4052064135        3.8053864558        2.6326126707
  O         8.8597474934        4.3851870739        4.0645803263
  O         8.5265224314        2.2302656682        2.7347903647
 Si        11.2962011408        6.6513280891        3.6950912668
  O        10.8660862606        5.6518100730        4.8828108873
  O        11.2564803921        5.9809528306        2.2256274225
 Si         9.7822570973        4.5501977166        5.3788312721
 Si        11.8437742041        2.3620651645        5.6830189329
  O        13.0647427175        3.1489245884        6.3713259059
  O        12.0077185830        2.3966307807        4.0779963155
  O        10.4519248258        3.1587589527        5.8746472793
 Si        11.5665060341        6.7073328175        0.8212302174
 Si        12.2383501521        1.5207482154        2.7579731826
  O        11.8319118946        0.9041201763        6.3766924418
  O        13.3961234868        2.2491588857        1.9147465467
  O        10.8738608262        1.3318860899        1.9052308126
 Si         9.3142667463        0.9711922709        2.1572498468
  O         9.2781592425        4.3071040562        1.3791533059
  O         9.0319558028        5.0488353873        6.7221997017
  O        12.8426314155        7.0388497814        3.8141953147
  O         8.6217972883        0.5860881626        0.7391914984
  O        13.0919436499        6.6156741325        0.2860305704
 Si        14.5143851134        6.5006331041        7.3576934802
  O         7.4627474680        0.2409514588        5.3861589206
  O        10.6069432309        5.9638640191       -0.2364272128
  O         3.3195002175        7.5344211699        7.3675484165
  O         0.8128418766       13.3331372394        0.0963640072
 Si         6.3040838028        7.5773513705        4.5193154451
  O         2.1579211796       14.4887641305        2.0633164109
  O         3.2365490069       12.5921033327        0.5956687738
  O         3.5250398083       13.0137643936        6.6279897486
 Si         0.7218131443       14.3340969933        1.3497270601
 Si         1.2726564587        7.8938817966        2.6271967133
  O         1.9695702290        9.4440874267        6.3201357479
 Si         5.0230786884       12.3812281485        6.6993639915
  O         4.1446231961       13.0748328743        3.0590195322
  O         6.2876019116        8.5307474046        3.2190810455
  O         5.1967061026       11.7503178117        5.1863136016
 Si         3.5498745296       13.7486076917        1.7111216339
  O         2.8849485845       11.0893232722        4.3189415537
 Si         4.3204310359       11.6275263920        3.8022250057
 Si         1.7011368872       10.1245130790        4.8634485334
  O         1.5712727172        9.0177800463        3.7245735793
  O         4.9916252043       10.6697734960        2.6512139446
 Si         6.3710797510        9.8535295406        2.2752743950
  O         0.4148892344        8.5218735982        1.4094194809
  O         6.7070368243        9.5104976882        0.6677424593
  O         0.8447627011       13.0000700084        6.3756308466
 Si         2.1365700436       13.8270928988        6.8216446725
  O         0.3059290857       10.9343252540        4.9826724777
  O         6.1303159466       13.5255491680        6.8855820563
  O         1.3177161035       10.7617322141        0.4881701016
  O         7.3698924193        8.0371241053        5.6320935533
 Si         2.0289500409        8.4454948836        7.6018470457
  O        12.6722097026       14.9945973617        3.3142308004
 Si        14.8805234097        9.8772194801        0.6609512943
  O         9.8450124265       14.2425968583        5.9605963864
  O         7.5416378034       10.7716890558        2.9012386338
 Si        12.3790903779       11.0252580953        2.1476111583
  O        13.4994132150       11.6780158915        6.9599892619
  O         9.2103497436       14.8213451096        3.3742871642
 Si         7.6715686966        9.2957695040        6.5901816177
 Si        14.5217539189       12.1529325463        5.7959737353
  O        13.8317899686       10.6865733643        1.5651771790
  O        12.1738939915       10.0267892947        3.3909658161
  O        12.3399669157       12.5652730121        2.5796649384
  O        11.3569182393        9.2677959505        5.7191239480
 Si        10.7532868058        9.6194455929        0.1571023501
  O         9.1256270095        9.1931157020        7.2013652314
  O         8.2772049552       12.7573360036        4.4739842025
  O        14.7239631471       13.6696797658        2.4831940991
 Si         8.7082553305       14.2642925245        4.7994353214
 Si         8.2774125829       11.1795181674        4.2796270863
  O        10.4329438812        8.0258508059        3.6574780004
  O        13.6623722085       13.0801331384        4.8006144047
 Si        10.7104294407        9.3076270172        7.1806700399
 Si        10.8775925615       14.7200821181        7.1194611843
  O         9.7678692832       10.5941525478        4.1403949829
  O        11.1787063658       10.8498784011        1.0912847856
 Si        10.9130870519        9.4775031650        4.2056919156
  O         7.6086626644       10.5922737627        5.6319252274
 Si        13.3578487713       13.5671101220        3.3060176297
  O        11.2613070647        8.2805163550        0.9020405554
  O         9.1785315103        9.5210278840       -0.0001855471
 Si         5.4061497300        5.1516770389       11.6891574933
  O         5.1344690414        5.2168625397       10.0970039424
  O         5.2104641804        3.6410516773       12.2568457489
 Si         4.0679573045        2.5493517814       12.6435880455
  O         4.3149291817        1.1747805013       11.8478820363
  O         2.6516836910        3.2347168264       12.3273314095
 Si         5.7797418799        4.9431528913        8.6391832654
 Si         1.4848322073        3.9415297032       11.4813413835
  O         5.7123026771        1.1517499460        9.6769326017
  O         1.5775100544        5.5467680813       11.5105311402
  O         1.5874835404        3.4539478597        9.9481936201
 Si         1.9593962236        2.0834032365        9.2038914101
  O         4.3797886636        6.1299473545       12.4256045480
  O         3.5005498961        1.9768440152        8.7684312031
  O         3.9838754271        2.0701376171       14.1706868128
  O         5.5525877838        3.4063264833        8.2661756294
 Si         5.0557979843        1.9135231585        8.4138912155
  O         1.6652066596        0.8208889315       10.1898497851
 Si         1.1971592943        6.9786134065       12.1362467835
  O         6.8611164044        5.7194743097       11.9993710682
 Si         5.0529118078        0.2057829723       10.8010330405
  O         0.1551836190        6.7826618601       13.3371402824
  O         1.2441987673        2.0756703751        7.7712742224
  O         5.2185244147        5.8710706660        7.4607304119
  O         7.3568860247        5.1377083307        8.6950603708
 Si         3.9245575513        7.4326454526       13.2305766440
  O         0.8434758534        7.3816028957        7.8648384489
  O         0.0831797692        3.4781694749       12.0864953803
 Si         7.4687754953        0.8813801038       14.5338981567
  O         4.1328335355        7.1122642786       14.8163442100
  O         2.3878757462        7.6937033017       12.9171891629
  O         7.7042352664        0.4176173698        8.0272527148
  O        13.3382021865        6.7116617108        8.4502305373
  O         7.9496919267        1.7325927106       13.1781537889
  O         8.7570399633        2.8646200596        8.1309637163
 Si        13.5056252176        6.5677215457       13.6270589340
 Si         8.0823255828        6.2614227029       12.8803839186
 Si        10.2556484814        5.6020194780       10.7872079915
  O        10.7760969599        4.3780667983       11.6806435675
 Si        13.8026728610        3.5844031546       13.1415886295
 Si         8.7386061457        4.4819717941        8.2239563449
 Si        11.0434603163        3.1050511404       12.6176782902
  O        13.1667792574        5.0702072976       13.1536993563
  O         9.6926832763        4.9648930567        9.4207072501
  O         9.2654665430        6.4600886391       11.7669121352
  O        11.4385738484        6.5406513639       10.2604237149
 Si         8.7913654943        1.3676720892        8.7529578946
  O        12.5845371786        2.6584773888       12.6748705771
  O        10.3382674814        1.8121662292       12.0135738562
  O        10.4374559959        3.4055503363       14.0894239569
 Si         8.8611047637        1.2510225510       11.8744100171
  O         8.4515567339        1.5732588103       10.3358665410
  O         8.3726207973        5.0479558127       13.9073868956
  O        10.1777948263        0.5903599156        8.3708897436
  O        14.3337067828        3.1456469505       14.5821894081
 Si         9.6648642765        4.6485155083       14.7690700596
  O         6.7000842820        9.3599838854        7.8752202244
  O         6.1983169215       14.1812495961       11.4335303233
  O         0.7398953632        7.9478038309       10.9332092868
  O         3.8943604771       14.1718684457       10.1853033651
 Si         2.2931947350       14.2370686341        9.9423397921
  O         3.3831092715       11.0051221388       11.2509652428
  O         1.6603423388       13.0710870650       10.8511577296
  O         2.0076499745       12.0028737878       13.1923118187
  O         0.9978247510       10.5133881310       11.2561571106
 Si         2.0008272511       11.6975945840       11.6366283141
  O         2.0769975643        9.2713990140        9.0133182916
  O         5.6294924039       11.0329769252       12.1634704972
 Si         0.9141026152        9.3491150392       10.1398293259
  O         5.0574508655        9.5328231679       10.0159245791
 Si         6.0633005975       10.3353525580        8.9987395220
  O         1.9846168821       13.9971086110        8.3998691484
 Si         4.5907854701       10.0065555357       11.5128287206
  O         4.5638899114        8.7790529926       12.5819087708
  O         5.2924008848       11.4292793476        8.0253587912
  O         7.0372219854       14.3357226749       13.9137400995
 Si         1.8631871441       12.1405079159       14.7656879568
  O         7.2028912405       10.8374727159       10.1201406975
 Si         7.4304707704       13.8287140225       12.4194693578
 Si         7.1758067969       10.9605399720       11.7838582694
  O        11.1054945975       10.7613274204        7.7700816142
 Si        12.0850768341        7.4837276996        9.1376739437
  O        12.7666019238        7.7800025627       12.8386922914
  O        14.4859501604        9.7710318336        9.3628944283
  O        11.5111354010        9.8536208775       13.6633566371
  O         7.8651697467       12.3104736881       12.2615578473
  O        12.2508577858        8.8721572374        9.9316590785
 Si        13.1326385821       10.1870048948       10.1557476998
  O        13.2473321876       10.2655539946       11.7659018924
 Si         7.7482002444        9.1166132903       14.2987073232
  O        11.6703165812       13.4155710449        7.7001762961
  O         8.7924502350       14.5670599900       11.9969647301
  O        11.1734245974        7.9495712613        7.9022848998
  O        14.1521842587        9.5981005992       14.1492509386
 Si        12.2361752127       11.9123580274        7.9599942618
  O         7.7011105534        9.8413439759       12.8342368972
  O        12.6698474923       11.5993698299        9.5111501068
 Si        12.9398696335        9.3883054263       13.0827719647
  O         7.7034410334        7.5425287718       13.8288408685
