216
14.973 14.973 14.973
  O         3.5831236414        2.4242639857        3.0169628458
  O         1.2485733145        3.4209283426        3.9864323935
 Si         2.4003126933        2.2906002671        4.1085910299
 Si         4.6014663682        2.6840389549        6.1764710379
  O         3.1966658834        2.4972815541        5.4630368435
  O         5.9566526169        2.8835254182        5.2975894976
  O         1.7906791036        0.7812110509        4.1349210866
 Si         3.6133797989        2.8388952005        1.4684784725
  O         1.3977376034        5.7600569688        5.2191241415
  O         2.7146286527        6.5563451536        1.5622048209
 Si         1.0980619295        6.6219045083        1.6195327016
 Si         0.5574257694        4.8791060403        4.1481802607
  O         4.0524969686        4.3616044282        1.2358366856
  O         2.1095740516        2.5702581512        1.0136133311
  O         0.5449189563        5.5377131822        2.6663746547
 Si         3.6842584530        5.7635140903        0.5441837466
  O         0.3110974943        0.7899564983        6.3091641511
  O         4.7599102777        1.3938270617        7.1046640353
  O         5.0021690898        6.5967104730        0.2347118838
  O         4.6012299253        1.9287778089        0.6181097089
 Si         1.0175360489        7.0798285927        6.0706472793
 Si         0.9753634954        1.7512018749        0.2549301652
  O         0.5615987603        6.3204932651        0.1025592661
  O         4.3808093671        4.0068821010        7.0399990762
 Si         7.4364883674        2.5354696677        5.8949762814
  O        14.6586638059        1.9514343859        1.1808583920
  O         7.6177833021        0.9498994468        5.6051874809
  O        11.3932493405        4.1283824635        5.3686713402
  O        14.0235980598        4.9098881921        4.7577489071
  O         8.7226554998        3.3343038026        5.3072586809
 Si        13.1143940262        1.5987124592        0.9527798410
  O        13.3296692221        2.7981227710        3.8245963416
 Si         9.7916695952        4.5530697407        5.3168984445
 Si        10.7043973602        5.8394318465        2.8504064803
 Si        12.6560515864        4.1790622577        4.3003666334
  O         9.5922446053        5.3040751726        3.8975582073
  O        12.0177416639        4.9173024828        3.0164687516
  O        10.2097602725        5.7684681108        1.3279420881
  O        12.4806463878        1.0086111371        2.3390350606
 Si        13.0541578520        1.2184122074        3.8693585480
  O        12.1693678449        1.1775676532        5.2247700756
  O         9.5220330519        0.8558840519        1.1316850819
  O         9.4354593575        5.5374150340        6.5540172894
 Si        11.5435007971        0.2989954803        6.4193758536
  O        14.2660239427        0.1562807951        4.0507936643
  O         9.9696371989        0.5474874981        6.3965788632
  O        11.0736946482        7.3398562215        3.2677093535
  O         9.4407354927        0.1590680729        3.8332401470
  O        12.3972616735        2.8961851742        0.3203176648
  O        14.4070915127        7.3367048259        5.9274190801
 Si         0.6344139890       14.9502004968        4.9468192446
  O         6.9465417377       12.3175887926        0.4561669997
  O         1.9631545603       12.7986855877        0.3726459871
  O         6.0051035086       14.7463869447        0.6939889582
  O         5.3723038704       13.8433078884        7.0170837628
  O         2.9562813171       12.7157425949        6.9290039820
  O         0.9769353000       10.6064249002        1.4037846010
 Si         2.3347619353       11.4215246146        1.1023552630
  O         5.4577310276        8.3568079119        2.0357293079
  O         1.8847727614        8.2760779505        5.4563260149
 Si         3.0366263585        9.3788116118        5.5810249081
  O         4.2043621024        9.0537001280        4.4575783993
  O         3.1798390921       11.7792606565        2.4719332640
 Si         6.5945903203       13.5072950081        1.5000389880
 Si         4.5788955197       12.0557108252        3.2839824296
  O         5.4516545127       13.1971477264        2.5784109249
  O         5.4650961073       10.7569932856        3.0322431480
 Si         5.4762426683        9.2112257630        3.4167456526
  O         2.2572159059       10.8279131067        5.3820246246
  O         1.0273708674       13.3828310907        5.2441595956
  O         4.5226745653       12.3943861475        4.8820055447
 Si         1.6438486411       12.1444049045        6.1652444905
 Si         4.5243079919       12.5604853037        6.5130999497
  O         6.9350013270        8.9721184354        4.0534406189
 Si         5.7255584857        8.0090599307        0.4671768735
  O         0.6988196882        8.0962900097        2.1061054245
  O         3.6664228097        9.2788776351        7.0903260203
  O         0.5225131392       11.6900668153        7.2621471126
  O         5.1532633627       11.3008666253        7.3315917587
  O         7.2527889443        7.7949168588       -0.0041122173
 Si        14.8851847661        9.4167961148        1.6374018523
  O        11.3888855560        9.9003571105        3.4318914738
 Si        11.3781795821       12.5411146342        1.1516685481
 Si         9.3874213224       14.6725447996        2.2800151565
 Si        10.9793445413        8.5883047318        4.2582968876
  O         7.9604296379       13.9487723629        2.1857500673
 Si        13.2379414048        8.2614915616        6.5216961434
  O        13.9572025605        9.6741642187        6.7736532085
 Si         8.8780174979       14.9554188236        5.3571128426
 Si        12.0160765436       12.2416712096        5.8634350135
  O        12.8624699461       11.6848142143        4.6079286150
  O        12.4719793114       11.7922639388        2.0320544161
 Si         9.0105426883       11.9735409581        6.3879505177
  O         9.4791738162        8.8013128653        4.7621798385
  O        10.6032877109       13.6428856064        2.0237364042
  O         7.4891763467        8.4192043133        6.4100317661
  O        14.0428512360        8.9626965879        0.3143103934
  O        12.2422675398       13.0913287562       -0.0763459094
 Si        12.6964999770       10.8107147521        3.2591019494
  O        12.8742947585       12.0045715028        7.1822655542
  O        13.9614569534        9.8963921399        2.8819000569
  O        10.5339152434       11.6131862532        5.9370258502
  O         8.5801853240       13.4117339822        5.7714417933
  O        11.8510440437       13.8150634472        5.8426566424
  O        10.2886465112       11.5343884403        0.5384934260
 Si         8.0195077442        9.2947507349        5.1891006924
  O        12.0140244019        8.3549892788        5.4761989775
  O         8.0959487344       10.8398867455        5.6860742524
 Si         3.5576977368        2.5033520355       10.8834847661
 Si         6.3830463239        1.4452400192       10.4197784284
  O         0.7028657303        4.8438752668       12.8509312477
  O         5.0952105181        2.1084855805       11.1573594614
 Si         1.7994641218        6.0205167998        8.8727802461
  O         2.8040869608        1.0994975581       10.7627339641
 Si         1.3750119728        6.0514973810       13.6890084109
  O         3.6522060918        3.3329115875        9.5110643402
 Si         1.0620958987        3.3036450450       12.4895358772
  O         2.5911123116        3.2826359655       11.9292257963
  O         5.9275886965        4.6056687709        8.9731161632
 Si         4.3608535700        4.4338521706        8.5738397161
  O         3.3648661771        5.6889149565        8.6555064286
  O         0.9256118498        2.4219137692       13.7969850295
  O         2.8749669310        5.6066040147       14.1192591388
  O         0.7076609409        4.8274402624        8.9810164833
  O         1.7225469616        1.2475467402        8.4260031661
  O         6.0725007798        0.5399697420        9.1182951698
  O         5.6944189272        0.9374470981       13.4473908100
  O         1.7855159798        6.7144636299       10.3061589918
 Si         0.2680360921        1.4343404775        7.7756418803
  O         7.1894441322        0.4814212513       11.4024937186
  O         7.3463175886        2.6673045594       10.0377144194
 Si         2.3829867682        0.2269606605        9.4975218031
 Si         7.0273903889        0.1842835526       12.9587076363
  O         1.4034200277        7.4001508254       12.7880763557
 Si         7.3013785128        3.7256136523        8.8386139047
  O         1.3324217638        6.9430454152        7.6437325959
  O         1.1800248565        0.1820662141       14.9728481719
 Si         4.9970797139        0.0998674194        8.0023115234
 Si         4.9333491448        0.5817610118       14.8079155669
  O        14.9038105572        2.6416640184       11.5377586182
  O        14.5727491694        2.9158408391        7.7948346650
 Si        14.2071421380        4.2081726955        8.7334448632
  O         8.6443548620        4.5971392661        8.8973747833
 Si        11.6063164684        3.3270794439       13.9453607874
 Si        12.2678657489        6.4757417307        8.8111346371
 Si        13.3065064934        2.7195520710       11.2258735757
  O        13.3404273610        3.8255059072       10.0517377919
  O        12.6415802909        1.4107921143       10.5210563282
  O        12.4608309037        3.0432848447       12.5720949554
  O        13.1808015131        5.3060507203        8.1151754323
  O        10.6752237843        6.2369421417        8.7286287604
  O        14.3553188983        0.5338560214        8.7396753584
 Si         9.2177627883        5.8894470610        8.1321537017
 Si        12.8792746936        0.3640886905        9.2987897987
  O        11.3028955677        4.9004829943       14.0282068010
  O        10.2167276334        2.4827398478       14.0326191446
 Si         9.6726130953        1.0241291610       14.4797808258
  O         9.5126053995        6.7951681360       13.9680486586
  O        11.9466702357        0.5403766388        7.9715025898
  O        12.6351253222        6.7085627081       10.3816441695
  O         8.2670115778        0.7142318605       13.8076285040
  O         8.0558116070        6.9950965980        8.4146648445
  O        11.9343811770        7.2475830319       15.0641649031
 Si        10.7417182442        6.1772086590       14.8299661024
  O        13.0918717151        0.5325549549       14.7215320754
  O         7.3237429401        2.8854146422        7.4642063585
  O         3.6564520861       14.6579347850       14.4424162653
  O         3.6860304251       14.5885545968        8.8029465293
  O         6.0118840636        8.9749198496        8.4290153090
 Si         1.2370758449        7.8804339869       11.2460293601
 Si         4.7220626188        9.9470173025        8.1416308669
  O         5.0550026360       11.7711264557       13.8072779773
  O         1.4857802266       14.0368880201       10.1336486289
  O         3.8972156297       10.0608271853       12.3278552238
  O         2.0249854756        9.2028052525       10.8441760751
 Si         3.1203717912       10.3588808649       10.9364195757
  O         2.3486038662       11.7692621965       11.0687695080
 Si         1.3995139730       13.0279127768       11.3924072217
  O         4.0526961027       10.2928578131        9.5934120211
  O         1.8640119379       13.6530134603       12.8156791648
 Si         4.2829641652       10.3550309919       13.8691427306
 Si         6.6023558885       12.1890732278       13.8478253935
  O         6.8640853223       13.5726784807       13.1056552026
 Si         2.1670497859       14.0453146289       14.3566458454
  O         5.1544103564        9.1290844531       14.4306704673
  O         3.1173044713       10.5267873450       14.9726696886
  O         7.4037524260       11.0764713848       13.0309840180
  O        10.6950517261       14.8946898651       13.8815204986
  O        13.6520657550       10.7054743960        9.1755315860
  O        14.8071368934       12.6462650556       11.4650577349
 Si         9.2887413876       10.7824401850        9.1666343335
 Si        13.1440044667        7.9630515738       11.2889966053
 Si        12.2229604210       14.3864417239       13.9751214208
 Si         8.5630826497        8.1043488239       14.0915307114
 Si        14.0532821241       11.0206311001        7.6328813423
  O        13.1039506698        7.8740275611       12.9064090844
  O         8.6581861517        9.4335549640        8.5697847076
  O        10.9056687789       10.7635657638        9.2741378409
  O        12.8641000459       14.0375289782       12.5578166799
 Si        12.2988453734       10.6202863266       10.0936970473
  O         8.6575319692       10.8379828791       10.6826731607
 Si         7.5080284594        8.4618427048        8.0045621343
  O        14.6778764203        8.1895402596       10.9130960698
  O        12.2414464984        9.2047542785       10.8377863273
  O        12.8593446303       13.8800649723        9.9653594900
  O        12.6353708535        7.7936792179        7.9468635893
  O         8.9016753084       11.9196135844        8.0328762816
  O         9.3639061684        9.2079070007       14.9636074692
 Si        12.7870753436        8.4443407074       14.3964827757
  O         8.3499673593        8.7561846781       12.5923734639
 Si        13.2613891227       13.0943075904       11.3192336387
  O        11.8696310432        9.7585372864       14.3420801222
  O        12.3939075234       11.7512189573       11.2358125416
  O         9.9753090597       10.7716830142       12.9468329161
 Si        10.3892067079       10.3381942730       14.4499875817
 Si         8.5894879051       10.3504003288       12.2301866351
