216
15.083 15.083 15.083
 Si         2.5856606630        4.5112212265        4.6915882904
  O         3.6158628875        3.4481477368        5.2728297593
  O         5.6488571366        1.8897356790        5.2723569767
 Si         4.7839102973        2.8826367853        6.1909445287
 Si         3.3937155914        6.3372271986        2.2829004417
  O         1.3405470216        3.6144882552        4.2358873896
  O         3.1432911624        5.1875709642        3.3592750435
 Si         6.8139849734        0.8384093889        4.9379414942
  O         2.2678679524        5.6465249580        5.8080425484
  O         4.3179784838        5.7354207553        1.0984724834
  O         5.6606220961        4.1596087398        6.6702164100
  O         6.3754676770        3.9947023751        1.0978275225
 Si         2.7792767112        6.7420051233        6.8845839437
 Si         6.9477643386        2.5912633144        0.4504152178
 Si         0.2010853915        3.3036516326        3.1592120844
  O         1.9819015385        6.9026867542        1.7263793929
 Si         0.9146108820        0.3750510714        2.8285526472
  O         1.7241048177        0.4727325835        4.2466523020
  O         0.0775292105        1.7417331459        2.7496740507
 Si         5.6575521175        5.2635014627        0.3333674832
  O         5.8892901266        1.3441133308        0.3939508763
  O         4.2505278270        7.4638717871        3.0711138437
  O         4.1672943417        2.2096238378        7.5312531492
  O         0.3177946734        4.1643293677        1.8102901781
  O         1.8056312128        0.2504591376        1.4932629584
  O         6.6036902555        6.5967634539        0.1584394992
  O         7.4539724829        1.0220562449        3.4631495221
 Si         0.0651561511        3.9882832548        0.2439359306
  O         7.9052559749        1.0172600718        6.1249874292
  O        10.3035131514        0.6294413699        6.9904844437
  O         8.2315414510        1.9744878605        1.1684644858
  O        10.2891679320        4.1789820128        2.9080125306
  O         9.9106210314        1.4882599067        2.9741164312
 Si        10.3398652600        2.7961290774        3.8081490058
  O         9.5891556882        2.7511952311        5.2738758062
  O        13.9773579278        3.7700528912        3.9315142373
  O        11.8541524892        2.5110511849        4.1664510854
 Si        12.2092089882        5.9001159574        5.6439631230
 Si        13.0401029262        3.1004005434        5.0357459733
  O        13.5915818325        1.8127124331        5.8119511965
 Si        10.6811051830        5.7823324491        2.9422893956
  O        11.0792036357        5.9684057507        4.4957362635
 Si         8.5814138804        0.8858095618        2.3105010560
  O        12.6463195906        4.3799203943        5.9669019967
 Si         9.2602328624        1.7874020156        6.5650481714
  O         9.3561333010        6.6595886076        2.6660240120
  O        11.8624857696        6.4486083657        1.9715790136
  O        11.6350957327        6.5324037129        7.0019756202
 Si        13.5774833831        0.3708720153        6.5626931404
  O        13.3290500307        6.9311675825        5.1067178817
 Si        10.3961807112        7.3082974526        7.6273303974
  O         9.1111196771        6.3589040838        7.5394064842
  O        14.3908155710        7.3823210826        1.4910300939
  O         6.9705165408        7.5454390800        3.2168409779
 Si         1.3870765320       14.5685382753        5.4951825489
  O         2.4375130202       14.6858376285        6.6952755200
 Si         0.8222883119        7.8913022564        1.1586468451
  O         3.0656709314        8.1439882419        6.1289913671
  O         5.5609834053        8.7136230962        1.2788561979
 Si         5.5938845908        8.3165040153        2.8385678399
  O         6.1969338508       14.4407964540        4.8807163632
 Si         2.7496460792        9.7198516538        6.3263786902
  O         1.2968733688       10.2914128309        5.9009022353
 Si         6.4915212295       12.9802801607        4.2695978749
  O         5.1048635586       12.1869291936        4.1648176468
 Si         2.0800816677       10.6782354694        1.7847280360
  O         1.1715114862        9.3390099106        1.8063140749
  O         3.3796783584       10.6037334913        2.7376950653
 Si         4.4288339211       10.7534548292        3.9582925101
  O         5.5838376946        9.6650404818        3.6959808210
  O         3.7643445682       10.4575033250        5.3615181365
  O         1.2542918168       11.9385465810        2.3471240125
  O         1.4959614144       13.1033804328        4.8053695923
  O         2.4488230331       10.9223910725        0.2301416836
  O         6.9980881475       12.9697759665        2.7442545691
 Si         0.5339053445       12.6841346909        3.5597488170
  O         7.0703748271       13.2827938986        0.0827230995
  O        -0.0079230040       14.1119334515        2.9822074893
 Si         2.1307958782       14.9623556171       -0.0497704559
 Si        14.8592677220       10.7127663794        5.5567336054
  O        14.9805615705       14.7713170777        6.1256695586
  O        14.2106000609        9.2874748903        5.2774043319
  O         8.5704220370       11.6004698201        1.1736130226
  O         9.9737288116        8.7112865188        6.9891315196
  O         9.8205341561       13.1970239710        6.5911259732
  O         7.6246518095       12.3426359882        5.2173809084
 Si        10.0820735057        9.3084927212        5.5169063226
  O        12.8780661763        8.6327397416        3.0858833385
 Si         7.9079551159       13.0717510628        1.4360641023
  O         9.1097930370        8.4760340590        4.5531118739
  O        11.6289818173        9.1078939004        5.1791894861
 Si         8.7805864398       11.9891041537        6.2753408139
  O        12.3470078225       14.3862514939        6.3639265077
  O        14.6131089526       11.6266505737        4.2378748510
  O         9.6668475142       10.8434779049        5.5766202943
 Si        10.9277390905       14.2296392621        7.1780017630
 Si         8.5353983414        7.9571196803        3.1515717955
 Si         8.6704394486       10.0197201112        0.7658896025
  O         8.7868355335       14.4507537656        1.7280966646
 Si        13.0045164313        8.4689740640        4.6658145618
  O        14.1507599387       11.5411405549        6.7583668777
  O        12.3375047827        8.8824323866        0.6287353093
  O         8.7194839287        9.1857381630        2.1326557398
 Si        12.8333553534        7.7862901632        1.7315645050
  O         6.1373345499        3.7820140431       11.6471669189
 Si         3.0147007217        6.3053763730       11.5930293098
 Si         5.8722286797        3.3846017422       13.1583462762
  O         3.3063909477        4.7015212173       11.3861421071
  O         5.2533258711        4.6483133640       13.9659872592
 Si         2.3110030953        3.4425224020       11.0807284701
 Si         6.0827461996        3.1281151169       10.1891580529
 Si         3.8723337929        1.7329862969        9.0461811718
  O         5.4225474122        4.2513019217        9.2264492033
  O         4.9474442643        2.0491698549       13.1946649336
  O         2.6795707565        2.6045961900        9.7377387964
  O         5.1046131030        1.8732818280       10.0586449558
  O         2.1205617735        2.4281479415       12.3231617333
 Si         0.9675946289        2.0664389467       13.3911208145
 Si         0.6951512137        6.6366120088       13.6398885767
  O         0.8581812079        4.0932106061       10.9096218334
  O         2.1354620463        6.4438313424       12.9476185233
  O         2.0474065689        6.7658622223       10.3871643836
  O         1.1629505280        0.5546536040       13.9174855621
 Si         5.0709816908        0.7684233636       14.1862945015
 Si         0.8723523589        6.9782110148        9.3107024772
  O         7.2270505949        2.9856857687       13.9788492000
  O         1.1740061654        2.9930485643       14.6979907551
  O         1.6451726464        7.2287430131        7.9248624750
  O         0.3093210739        5.4087324960       14.6095199921
  O         4.3821119769        7.2309029160       11.6300320767
  O         3.6121727887        0.1590973709        8.9580380010
  O         3.6295945748        0.3133198862       14.6919226330
 Si         5.4058962857        5.1775617426        7.8980606656
  O         6.6698320220        6.1316527532        8.0951896868
  O         0.0781643125        5.5795697769        8.9694199681
  O         4.0707021012        6.0575579732        7.6317174323
  O         7.5243170305        2.4904799745        9.8808233736
  O        13.6864819174        3.2892507461       15.0136378256
 Si        14.7106831541        4.3375472448        9.9145188705
  O        14.6016004563        6.7534254658       12.4944181976
  O        14.2294415935        2.9015463956        9.3474872156
 Si         8.1228121669        6.0408955437        8.7618817097
  O        14.5439216646        2.3692257032       12.8027458864
  O         8.6331164991        4.6888760236        9.4293281429
  O        11.9369159147        2.5939833806       12.7284060388
  O        13.1112857002        4.7763134721       13.2131323511
 Si        13.5917693700        1.4135475991        9.5655671968
  O        13.5033221966        4.9469591754       10.7499798808
 Si        13.2629647706        3.1922593915       13.4293718565
  O        10.0580532816        2.8293938582       10.5925788901
 Si        11.1189799532        1.9541386012       11.4688020287
  O        12.1967952318        1.4938531870       10.3628829193
 Si         8.9391866704        3.1222322068        9.4548714682
 Si        13.3053555683        5.8397376608       12.0605418898
  O        11.9419520606        6.6182691522       11.7730678019
  O        10.2930767006        0.7742930574       12.1795719694
  O         8.2416484816        7.0781535606        9.9910518700
  O        13.4371343234        0.7847520460        8.1052093440
  O        14.4598035134        0.3009746045       10.3729730757
  O         9.1977984708        2.6681672907        7.9230970892
  O         5.8124053196       14.6129867169       13.4295222009
  O         3.2071149021       12.7147891512        8.3284377687
  O         5.3485540893        8.3217339497       13.7813624708
 Si         4.9444731004        8.6481021013       12.2707189994
 Si         2.0411280847       11.9777478333       14.1636462023
  O         3.0610435688       12.0283330249       12.9132639812
 Si         6.4143683381       11.2222602387       11.5056573069
 Si         2.4943754299       11.3323966665        8.7816879161
 Si         3.5477991782       11.1649096561       11.6530189010
  O         3.6911703080        9.6508495675       12.1819068371
  O         2.6014969724       11.0864113219       10.3659770911
  O         4.9457942564       11.7789045403       11.1541826858
  O         0.9202746473       11.4014618202        8.5519785514
  O         6.2039241755        9.5863234894       11.7061001122
  O         1.2507106068       14.2942751727        9.0270784912
 Si         2.6346875473       14.2173592994        8.2324693758
  O         0.6242080360       11.6193396128       13.5047802044
 Si         7.0307276408       13.5494632568       13.5788257757
  O         6.9041196831       12.1117250430       12.7973889350
  O         7.3912605264       11.5391143879       10.2670955395
  O         1.9704697523       13.3835394946       14.9106730515
  O         0.8580155341        7.9269768546       14.6121293994
  O         0.4219549586       13.0563358380       11.2188209213
  O         3.0603482574       10.1332920560        7.8664215157
 Si         6.3193550319        8.2061608641       15.0450162547
 Si        15.0699291200       13.9485795880        9.9403925698
  O         7.5468559498        9.2678186887       14.9221408512
  O        14.0613273032       13.0300413565        9.0316848847
  O        15.0113599679        8.2284552301        9.8142719172
 Si        11.9427771296       12.2544237508       12.6933471536
  O         8.4019718629       14.2821981734       13.1151110599
  O         8.0170693918       11.4675620805        7.6218487861
  O        12.7090994644        8.9514744445       10.9949823988
 Si        14.0623676560        9.4733287690       10.3182394079
 Si         8.4207255062       11.0305123848        9.1270991706
  O         9.6659369302       13.7515324281       10.8440072702
 Si        11.5004383132        9.5982917439       14.5067492360
 Si        14.8471732187       11.9325971613       12.1872175375
  O        11.8625868714       11.0004015911       13.7360004017
  O        11.2296206450       13.7477327928        8.7244309324
 Si        11.5784432618        8.1781749250       11.8295453584
 Si         9.8075994311       14.3402969924       12.3447277812
  O        10.6217720295        7.6939493370        9.1715691932
  O        13.4990407330       12.6397891418       12.7220576465
  O        11.6417500472       12.1060931559       11.0769648332
 Si        14.4330231477       11.6059676688        8.3396826224
  O        10.0584138778        8.5632699608       11.4135581887
  O         8.5593414909        9.4552608845        9.3451032223
 Si        10.6787126989       12.8419542711        9.9728765070
  O         9.8894607572       11.6221182196        9.3341782906
  O        13.6681896771       10.3683005178        9.0296952445
 Si         9.3456439084        8.2425701924       10.0178993828
  O        10.9185975462       13.4348578387       13.1307236837
  O        11.6337798777        8.4875376480       13.3826761222
  O        14.6953240381       10.5236758235       11.3915968275
  O        10.0162054054        9.8337528193       15.0210271109
