216
15.01 15.01 15.01
O       9.887917512100021      1.852940529499989     14.309087930699995
Si     11.016400605800019     12.969731978099993      0.607622533400019
O      11.389147045300017     12.397017872499994      2.057944008800002
Si     10.703701360300004      0.490927595700000     14.193451495100003
O      10.830101114000012     14.590240706599985      0.529881290800005
O       9.651912740900020     12.338954660199997      0.077921484299986
O       9.985321209300018     14.582616260599996     13.083266398300008
O       7.010357046000006     12.244423059299988     14.854545219900002
O      12.158849574700005      0.894035581999994     13.672586789600011
Si      8.382856931900019     11.405331732799997     14.884074627200002
O      12.227222120200022     12.480825077599993     14.697658637099993
O       6.122289678500020      2.155237491899995      0.314450069800011
O       6.686045896600022     11.552125712399992     11.644515824300008
Si      5.632857271300000     13.031803121399999     14.584038116900008
O       5.992603407600016      0.445208707899991      2.381656970800002
O      12.696826542400014      2.543755452299989      2.586425276799995
O       5.827823950300009     14.564097497399988     14.997209559200011
O      12.222055495300012     11.073828506099989     11.569317928099998
Si      5.557991310700023     12.685328102899987     11.534042297700005
O      10.666352957700015      0.818618708899997      3.609138218200006
O       6.619825416200022      1.596496826599989     11.480481382300006
O       9.880079935900017     10.602284312199993      3.283391345900004
Si      9.985887148100018     14.437275508299983     11.492580187900007
Si     10.720803678200021     11.987628811199990      3.466500483700006
Si      5.460604852000007      0.811448981999998      0.914672690600007
O       5.650549084700017     10.914575475199992      2.259186644000010
O       8.485129332600009     10.681992721299988     13.444328901600009
O       6.454799273200005     13.080190382699993      3.604171589600010
Si      6.554155087200024     14.707881382099995      3.692793490000012
O       5.171205753800014     13.032292370799993     13.052036096500000
Si      5.194412513700015      2.363751671900008     11.624350798200004
O      13.648268827600017     13.733634661799996     12.987650090500004
O       4.480135769300012     12.256210486299995      0.388208771200000
O      14.187617893100024      1.139153216799991     12.137344556200013
Si     13.611122047700032      0.312646516999990     13.362630754900007
Si     13.707029267700003     12.532466258999985     14.094340840099999
O       2.687393603800011      0.126806848299983     13.677592365700011
O       1.537632490500006     14.895348670999997      1.015413591500000
Si      2.484188715500018      0.839311752599992      0.111062811100000
O      14.798303490600027     12.942657540799996      0.221563690800005
O      14.420621883700024      0.448881455599995     14.756493035899995
Si      0.009663791200020     14.426385157499983      0.838099978200000
O       3.860082147500015      0.990721240700002      0.927278596799995
O      14.267805590200018     14.518550003199994      2.266803327400014
Si      2.785300499400013      0.436179315599982     12.091606310200000
O       1.839594610600016      2.303123961499987     14.854278692700008
O      14.037837137500008     11.100443458300010     13.453027571899998
O       4.185245128500013      1.139911295999990     11.817313857600006
O       1.688454562400023      1.523560747099988     11.656570736199999
O       0.131971097200020      1.839712805700003      3.118802723600007
O       3.024121769300022     10.842979705300005      2.043841220700012
Si      4.415954435900004     10.864855168699993      1.204459947099991
Si      2.825667241600015     11.177934516200004      3.625923915800003
Si     14.557913332100016      0.411735331899984      3.593443506299997
O       7.940646802600012      9.336286897199997     11.256963728900008
O       8.398989546500008     10.358794784700002      1.094460372199997
O       7.835258559800017      3.344053392499997     13.757318346600011
Si      6.318743409700006      3.386987374000004     14.287976432299999
Si      9.379284734200024      3.367806493699999     14.174784596900004
O      10.268445702900021      4.418211412400007      2.979377767600002
Si      7.327875533300007     10.285307318899989     12.394874591599997
O       8.161748387400021      8.487004103100000      2.891596596199999
Si      7.639634279400012      6.966824392999989      2.650936714000006
O       8.653166908500015      6.147723079300004      1.716685868899997
O       9.573214763000014      3.968336159699987      0.625002030800005
O      11.140109146800008      6.070831211399991      1.170722592800000
O      10.140279198600020      4.352816856799990     13.149123328500004
Si      9.198365101000025      9.550481877299987      2.234571357500006
O       6.221342248100021      6.833271967799996      1.889299659500000
Si      9.902073497700016      5.151476436900001      1.617004312799999
Si     11.558922730500024      7.608916502499999      1.437258751799996
Si     11.318153650000013      4.971025658299997     12.251874823100014
O      10.354409230100019      8.655320074299990      1.563920301799999
O       6.208155543300002      9.515373060100009     13.216980072900004
O      12.316742253600006      7.637850110199989      2.876655697500007
O      11.999000994300010      6.298451645000012     12.915574422699994
O      12.315958400300005      8.017299478300009      0.077421324100001
O       6.068747679600004      4.772940383300012      0.073989458099995
O      12.315077431000008      3.726222179200001     11.808717149000000
Si      5.506976269700018      6.202988188199993      0.570907337800007
O       5.349430343000008      3.258118796999988     12.976033888000011
O       5.661937798600021      7.302813496800007     14.411846689200006
O       3.947799850400001      5.995484942000004      0.858584402199989
Si     14.252474947200016      3.037296198500005      2.489937496899994
O      13.093021090200024      8.732882018100000     12.725969750600008
Si     12.907496608800020      7.434925929200007     13.692986894000004
O       1.446244046800010      6.696768708200000      0.881545271800002
O      14.684768015900008      3.333928074399988      0.965909154700010
Si      5.051722023200006      8.720646491400000     13.964821486599995
Si      0.838264746900012      6.411476319600004     14.392253133400008
Si      2.584651990000016      5.807842520299996      1.672574349199992
O       2.071965892200017      4.272301632499993      1.562224770699991
Si     13.443004586500024     10.232753678099989     12.218250684499992
O      14.297087835200033      6.760979816199990     14.154047546000015
Si      1.155589525600013      3.654560202899988      0.369335690100010
O       4.561993238200016      9.586418056999985      0.235101271899997
O       1.841272832000027      9.492949262800002     11.735192093599995
O       2.927977579600011      6.137949037199999      3.206359578100007
O      14.578311487200013      4.349766747700004      3.357621168400007
Si      2.481540965200018      8.105902541300006     12.231091794400008
O       1.049511516500023      4.798752647300011     14.227212519100007
O       1.603718808200020      7.307692495500010     13.306525247899998
O       3.875390488100010      8.485503422499995     12.906232773200006
Si      8.241202263700014     11.573320508799986      7.747841128600003
O      12.292042354700012      0.229139014399991      8.472985968500005
O       9.906745963200017     14.665381761999990      5.863433680600020
Si      9.034678188800012     14.719212017399984      7.214880520300008
O       7.002278292200014      0.752882123399981      9.148247708900005
O       9.812539483400013      0.437351978599992      8.443826459600015
Si      6.971045928900012      1.644833462499987      7.831442503300005
O       8.488410122300012     13.192757113799992      7.583098232000006
Si     11.104806870200022      1.000981598499988      9.250472820500008
O       7.928780146900013      0.827115698399993      6.823173080200014
Si     11.744736408900021     12.110850729699990     10.429593728800011
O      11.842097581800015     11.860162449799979      4.621711601200007
O      10.921707246000025      0.534128930099987     10.783669664800001
O       6.855900037800018     11.059549866599994      7.048427087699999
Si      9.618718262500023     14.755650336999988      4.268343322900011
O      11.373862749600026      2.617017197199992      9.382718701200012
O      11.147121436600017     11.379823999499985      9.145507407300009
Si      7.045011262000009      0.263195633099992     10.658741047700005
O      12.466154316000006     12.876108145399986      7.035195002400015
O       8.089449415900017     11.075903545899994      9.296059718300008
O       5.668492699700008      0.210821594699989      4.920528785999999
O      12.879307684200013     13.030210897899979      9.708593935500001
O       8.094994799500013      0.132341652199987      3.909934790200013
O      10.585258316900013     13.006821504499982     11.095050506000007
O       9.562536487000013     10.688217815899995      7.269458160400013
O       5.512321447700009      1.544140898599992      7.201814293300003
O       9.742691473800024     13.231866294099994      3.758979051799995
O       6.042843327800008     14.029979800300001     10.800442139200005
Si     11.963025355100005      1.774605391999992      3.850414895199999
O       8.478036752200012     14.673369484500007     11.027185266000007
Si     12.991980597200019     13.785475224700003      8.275870876700008
Si      5.699514909400015     11.648091766799983      3.700145296100000
O      13.156419110300021      0.762446995199992      4.375057179900010
Si     12.988140391000027     12.002791673299996      5.756359927700003
O       1.586542344300021     12.166382436399999      3.911479260200005
O       4.167404193500004     11.935583117399986      4.142282180600001
O       1.665326431200021     11.768637024199993     10.481144175099999
O       0.663419635800016     14.660455820499994      4.466403364400013
O      14.501535314200018     14.191718476099988      7.898548901899997
Si      2.863332501300007     12.822256572499999     10.254666809200000
Si      0.837311056100030     13.125782973000000      4.981060850099999
O       2.931972061500018     13.191503241499991      8.681170773300014
Si      2.565189263600018     14.042522000799995      7.358193663600010
Si      0.200502073700018      0.606430681999995      8.138163031700010
O       1.696576142000009     13.118799316099990      6.344847729900001
O      14.589441270900021      1.773611166800008      7.195365497700002
Si      4.693423235300014      0.831524442500000      6.015843056700005
O       1.753448660600019      0.360154459899997      7.809636808000002
O       3.862654923000018     14.585240560500001      6.582257701900017
O       3.797305056100012      2.059047381199993      5.464712877900014
O      14.331821856700030     12.634837554599986      5.158822468600006
O       0.032595870600014      0.973854626399987      9.682658140399994
O       4.266888956300021     12.163039981000001     10.715499398300011
Si      0.216816673100024      1.719033163000001     11.081380564800011
O       2.615058781800022     14.123160375299998     11.187606211800013
O       6.304415491200003     10.524003520499994      4.690186081800007
O      11.466095670600028      3.029383102199991      4.787021298500005
O       7.312767098400022      3.214416155399993      8.129475074999998
Si     10.657646307800018     10.088350456399992      8.352292018900009
O      11.605074450600016      5.815462516999990      4.697008423400004
Si     11.900777095000011      3.920895401799987     10.217526223600007
O       9.909904838600022      9.189986890299981      9.463141980800014
O       7.624699636300010      8.496357047399998      8.753927538500022
O       8.576276645500013      6.929465539099994      6.415297225900011
O       9.419297020300011      4.658025336099986      5.397412966199997
Si      8.360584886000016      9.523844983400005      9.733726245700012
Si      7.505000000000000      7.505000000000000      7.505000000000000
O       6.929447826500016      4.827685928699999      6.115854554500011
Si      8.163827505900013      5.666894321499986      5.469007749999999
O      11.837865054000014      9.197692372099997      7.752906324399992
O       6.592929816100006      8.423573883499996      6.494488414600005
Si      6.693025865100008      4.673978778000003      7.713860507799997
Si      6.048511465100026      9.923153705699990      6.178396251500002
O       7.216428551000022      6.097186552799998      8.292052235800018
Si     10.741549266200005      4.462400631000005      4.502413845200001
Si     12.561213324400009      7.077322455499989      4.373666944000002
O      10.838925432600014      5.114758660199996     10.655742707600009
O       7.624056078000021      6.220387703100006      4.068671458600001
O      12.464708443100012      8.246041559400007      5.472596669100005
O       2.694187797800019      9.754431106899993      4.377568053599997
O       1.256622682300019      5.675632254999989      5.090053802000006
O      14.510579510800016     10.218113818899988     11.025869236900013
O      13.170849872900005      4.568185111599994      9.450818468300003
O      13.421150014600023     10.541607655199996      6.254896830200010
O       1.517880229700009      3.095410220799988      6.024905226800012
O      14.408435996500028      8.414657089799995      7.422200082200011
Si     14.799389003800021      5.150759011199991      4.735188416200012
Si      0.947286545300018      8.554868873699991      7.929842886800004
Si      1.936225259600012      6.286685051799996      9.775244478300014
Si      2.803710158400022      5.985974175800004      4.815840254200000
Si      3.097057985500029      3.301448390899986      6.221390571400009
O       2.939574805400018      5.058210524399994      9.538921092900020
O       0.499616256300009      5.697704734299994     10.240996229600011
Si      4.024612474300013      3.992441280899989      9.032607866600010
O       3.554244991500012      4.727865786299995      5.547214347100013
Si      1.041790404400016     10.287369025699997     10.589854910600014
O       4.427002752000019      9.733426394800007      6.340470877400002
O       5.189455848700011      4.732871829299999      8.223152116600005
O      14.044175876800017      6.536778288599991      4.537748638800005
O       4.656335720900009      3.181938354199994     10.309702807999999
O       0.427921638200014      3.964623151699985      8.292192308200013
O       2.618736538800006      7.167730206599992     10.931623660499998
Si      3.108696434100017      8.980585280799993      5.732642631900013
Si     14.757690941700021      4.385452811299992      9.692891986200003
O       1.849759427500030      9.114415721799997      6.726885793500015
O      14.973541113900014      3.264040424200003     10.810077521900006
Si      0.165421105000025      3.249414603699990      6.872898439499998
O      14.256010897400023      4.196370405499987      5.939343723999995
O       3.326445403700025      7.398353047900000      5.413525966299995
Si     13.076279854300020      9.053859870799993      6.727608355800010
O       1.063023700000021      9.589616943900003      9.148675649300003
O       1.604383436400011      7.159628394299997      8.445155509500019
O       3.322015487600019      3.167694370100006      7.828665687900001
