216
14.771 14.771 14.771
  O         5.0934146112        5.7525958789        1.3871874906
 Si         5.4532672029        4.7902979570        2.6187772751
  O         4.4991743821        3.5130404322        2.4712872447
 Si         4.3390948519        2.4781210585        1.2503279348
  O         3.9345506284        1.0780594640        1.9515564121
  O         5.1708965109        5.4976378817        4.0306982074
 Si         5.1403652015        5.6995556043        5.6296821863
 Si         1.0148541077        4.3291212815        4.5781699427
  O         2.2962156016        3.7742310112        5.3585646012
  O         6.6415026661        5.9922810181        6.1507607779
  O         1.4731940529        5.5830823336        3.6820316778
  O         4.5262496653        4.4357257750        6.4071942439
 Si         1.0430281525        6.7956417500        2.7091629181
 Si         2.9830368693        4.1495628335        6.7638042736
 Si         5.4170223833        7.0041029913        0.4483697978
  O         6.9899200095        4.3523193438        2.4536150199
  O         4.2740915115        7.0300408609        5.9876907868
  O         3.0993189795        2.8778712937        0.3119104180
  O         5.7410533834        2.6193647695        0.4083578169
  O         0.3296275066        6.1525744876        1.4103178575
  O         0.4214168008        3.1306844800        3.6930971030
  O         2.3755962054        5.4999368679        7.3858410421
 Si         0.0238960267        5.4801954805       -0.0226756790
  O        14.6939793671        4.7589323780        5.6673407431
  O        11.1430364385        3.2050488420        0.3283398389
 Si        13.8979326759        5.3659855746        6.9195258019
  O         8.0328059280        0.6396412382        5.5702527545
  O        14.3748114776        0.7224794089        3.0327157323
  O        10.0252160521        0.8706656507        0.8209001464
  O         8.9551233710        2.8719116631        6.6638277300
  O         9.4305867994        3.1143291157        2.2095860242
 Si        13.9192047508        2.2649575715        3.2937626131
  O         8.1326224120        3.1210094535        4.3483096427
 Si         8.4442314924        4.0492391620        3.0552690719
  O         9.1904594560        5.4919535455        3.1277217238
 Si         8.8388138726        2.0269614204        5.3050082948
 Si        11.7104794375        0.9916476697        4.4094469679
  O        12.7800817042        2.2147728932        4.4346788174
  O        10.2490810621        1.5696258345        4.6719416482
  O        13.2028338961        2.9536170848        2.0401858304
 Si         9.7812738830        2.4640150425        0.7906227349
  O        12.6220751854        6.0854027802        6.3168765234
 Si         9.4533788093        6.9482005214        3.7629391472
 Si        12.7463872813        3.2145000893        0.5261336396
  O        10.6761410453        6.7504563344        4.7730296509
  O        13.4481443491        4.5923195195        0.0782312155
  O        12.1514052896        0.0032442304        5.6027184344
 Si        11.7604629113        7.3221098360        5.8112987060
 Si        12.2232477820        0.2150660070        7.1971057601
  O         8.1181377160        7.3938006057        4.5205582434
  O        11.9115347091        0.1674778034        3.0131847915
  O         6.9798846073        7.3822950424        0.4946315705
  O         2.3157792804        7.6342698487        2.2041765263
 Si         3.7597089630       14.3303250748        2.4430860257
  O         4.6135330539        8.2591054599        1.0564599784
  O         2.5433210500       13.5424364933        6.2503765506
  O         3.6040385017       13.3794831092        1.1569982926
  O         2.6287839458       14.0308973615        3.6006596758
 Si         4.7111326988        8.5880777228        6.0240673351
  O         4.0172263167        9.2706544490        4.7591711975
  O         2.8483541594       11.5792981836        4.5175571085
  O         3.2824937037       10.0863858278        2.3852700265
 Si         3.1470183587        8.7811130967        1.4490408998
 Si         3.8402157923       10.5508249696        3.8221654312
  O         5.1863193536       13.8877240904        2.9850214034
  O         5.2408273154       11.3045503059        3.6936467884
 Si         6.0203286048       12.6855252642        3.5909420270
 Si         2.1532582533       12.9955626952        4.7854418747
  O         6.4809488887       13.2950758563        5.0031735622
  O         0.5840117634       12.6382184526        4.8422990965
  O         6.3160632953        8.6161418453        5.9045578365
  O         0.1482565713        7.8017738652        3.6128047347
  O         2.4550578854        9.1852545180        0.0507373024
  O         7.2990835887       12.3140603568        2.7088706283
  O         4.3506205837        9.3637898773        7.3929972265
 Si         7.3851727212        7.4155116651        5.9368934764
  O         9.4386283263       13.4608978760        2.0493486307
  O        12.7159944316        8.3748268886        5.0153146452
  O         9.4378063664       10.9105169062        3.1115989165
  O         8.3904965553        9.5421068363        1.0738305099
 Si        12.2825087898        9.0939725726        0.9634724192
 Si         7.9214684541       13.7900559764        5.5048551712
  O        11.0010599127        7.8882628911        7.1286480809
  O         9.7770046755        8.1970671773        2.7862740730
 Si         9.6271018679        9.6576704797        2.1045599651
  O        10.9862703508        9.9993945693        1.2998236860
  O         8.0503617036       13.0444607485        6.9017739266
  O        13.3891543523        9.9303281471        0.1547661666
  O         9.0306801297       13.1327492909        4.5261202901
 Si         9.3316336489       14.1994320185        0.6442328270
  O        13.3725879670       12.8621950431        3.3625832273
 Si        13.6583699260        8.8060727342        3.7641271271
 Si        13.3655393219       14.2815305157        2.5989096213
 Si        13.9680069556       11.8880194202        4.5036894803
  O         8.3831652456        7.6317131161        7.1364223596
  O        12.8765350735        8.6111138490        2.3681055652
 Si         8.8504421486       12.4164434992        3.0938949489
  O        14.1129508950       10.3578063956        3.9486929895
  O        13.7896818894       13.9544287958        1.0734300644
  O        13.0433755988       11.8189207367        5.8304354391
 Si         3.2751948529        3.1072178241       10.9192232100
 Si         6.1223456011        2.5011384276        9.5634408924
  O         3.0453213861        3.1179484910       12.5331473120
  O         2.3834009769        1.9652428581       10.2040495537
  O         5.8275767278        5.2556694385       11.4733851572
  O         2.7914704353        4.5679890793       10.4945136529
 Si         2.0915762416        3.1560782959       13.8647640509
  O         5.9076413812        0.9884707588        9.0352401529
  O         4.7141805096        2.9567091783       10.2003875517
 Si         1.8056862142        2.0139339710        8.6960804769
 Si         5.2547856499        6.6269700204       12.0958529117
  O         3.8005481146        6.8266093906       11.4045309551
 Si         2.4597089778        6.0525954138       10.9450780955
  O         1.3107941137        6.1508164279       12.0530287529
 Si         1.5836727758        6.6888768409        8.1085291511
  O         1.7161269518        6.6555641864        9.6885443898
  O         1.0113266065        1.9696512144       13.6908186263
  O         7.1357431745        2.9640879884       10.7607511576
 Si         6.9492456684        2.6354926158       14.0926465973
  O         6.9032006982        3.2032665359        8.3025396966
  O         5.0074010990        6.6440389789       13.6967667914
  O         6.6649269483        1.3100238778       13.2012650802
  O         1.8007138052        0.5859519197        7.9748833885
  O         0.3277454400        2.6178661622        8.8569371995
  O         2.7838353179        2.9535265041        7.8044309510
  O         7.0619285158        3.9401987966       13.1480025261
  O         1.2357184806        4.5127753535       14.2041046218
  O         0.0323961458        6.4772703348        7.6966044568
 Si         7.1700871253        4.3577861390       11.5947988210
  O        14.4421782964        6.7244089589       13.7579177422
 Si        14.6483008308        6.8925171287       12.1550383570
 Si        14.3067332012        1.4432748691       13.3375237822
 Si         8.5292384905        3.3102787999        8.1438627401
  O        13.8022217719        1.9664503493       11.9092111973
  O         8.4474196944        5.2495315390       11.0676173652
  O        12.5446539285        2.6357824476        9.8518147442
  O        10.9976425341        5.4178136361       10.3453563415
  O        11.1623206027        1.6402884569       12.0622275576
 Si        12.3716186008        2.5594738860       11.4620835330
 Si         9.4789211677        5.6597573024        9.8467949752
  O        12.1511394809        4.0103327825       12.1381329241
  O         9.3488024474        2.2884598291        9.1078488997
 Si        11.9163174115        5.5363712248       11.6700507016
 Si        13.5212547691        2.7275067772        8.5594701617
  O         9.0971316831        4.7679450357        8.5451143871
  O        13.3676853942        6.2232350737       11.4089908688
  O        11.0961021597        6.3814127102       12.7766598437
 Si         9.7429023374        0.7474993432        8.9019173954
 Si        10.3878100923        0.2486257109       11.7469999046
  O         9.5194727280        7.2161449986        9.3571566379
  O        10.6845227122        0.4871978987        7.6295630783
  O        13.1219386738        1.4803149672        7.6194665721
  O        13.3720462157        4.1808142554        7.8772520927
  O        13.2895144860        1.9741179099       14.4472392264
  O        10.5052777764        0.1607429693       10.1614928386
  O         8.8597089753        0.1604483167       12.3098684611
  O        14.2038895575       -0.1608261678       13.3710637781
  O         8.4451317492        2.6248240619       14.6895495271
  O         6.3963148767        7.7113045440       11.7248078938
 Si         2.4835866740       13.9086982972        7.8250801814
  O         2.8805037997       11.6499347639       14.1879314575
  O         2.2320865453        8.1407003262        7.8815847217
  O         4.7628034060       14.3719041699       10.8259044718
 Si         5.2752260467       14.2943947492        9.2969309609
  O         4.0102669316       13.9499964832        8.3649673271
 Si         2.6904853349       10.1838005774       13.5861546188
  O         3.9312729351        9.7470652717       12.6261992460
  O         1.5358806816       12.9288209808        8.7201125161
  O         4.3564558677       11.9881007214       11.4871147754
  O         6.4143475049       13.1398337164        9.0345681559
 Si         4.9024191822       13.4002156213       12.0924349647
  O         1.4151134680       10.1752918619       12.6465980451
 Si         4.4687700269       10.3933920622       11.2280911219
  O         6.0671439027       10.1659029680       11.1636249886
  O         3.6864452822        9.7650558802        9.9182170120
 Si         3.0889743289        9.4375717892        8.3919299734
 Si         0.8864230613       11.4425934606        8.8045410688
  O         6.4777602242       13.5413906022       12.5596749208
  O         3.9298089694       13.8551671686       13.3090632573
  O         2.0349729997       10.5971128571        8.0457951166
  O         0.6544065686       10.7478501683       10.2567301564
 Si         7.0664107098        9.1681612339       11.9309851998
 Si         0.2421140899        9.9550481407       11.6007600304
 Si         2.9788348163       13.2156565929       14.4710807926
  O         1.5442876428       13.9421641442       14.6140647695
  O         7.2199630359        9.3578480959       13.5347134715
 Si        14.7253490946       13.6511640627       14.5538881206
 Si         7.9679880439        8.5077454841       14.6891748552
  O        14.6124228246       12.0953665594       14.2019257365
 Si         7.4755631755       14.6869504600       13.1620406025
 Si        10.7661026924       12.5107204071       13.2152684244
  O        11.8065271997        7.8865166577       14.7685059422
  O        10.7446584182       10.5775956390       10.3423951834
  O         9.0368667630       12.1202990273        9.0390299681
  O        14.1964147616       11.4089440544        8.1208008556
 Si        10.7720033709        7.7556802184       13.5325958235
  O        14.7700397617        8.3644966784       11.4906389969
 Si         9.6436675321        8.0942092014        7.9935468461
  O         7.8776884258       14.3599627835       14.7027823320
 Si        13.4517734738       11.0721144388       13.7968634405
  O         9.5176039189        9.6695228575        8.2792622399
  O        10.0924100490       13.2119333074       14.4480671011
  O        12.8648818025       13.6313676708        7.7923152826
  O         8.5416922319        9.4253751724       11.3255596198
 Si         7.9504950629       13.1860933040        8.4831936161
  O        10.8985610688        9.0100528415       12.4910910397
 Si         9.9847439866       10.0788806203       11.6769847805
  O         9.7723993327       11.4131025498       12.5671380261
 Si        12.8841521761       12.0513641306        7.4259750740
  O         9.2640779389        7.7286966603       14.1089604236
  O        12.0600912739       11.8136605803       13.7863488191
  O         8.3811036027       14.6978629554        8.7880637108
  O        13.7006380686       10.5738849657       12.2913648704
 Si        10.2084043952       10.9939875332        8.8702531143
  O        11.1691979221       13.7038588355       12.2229753776
  O        11.4878682976       11.4140318689        7.9641770048
