216
14.941 14.941 14.941
  O         3.0802940587        5.9111427537        2.5016034201
 Si         3.0768826569        5.3583708693        0.9964042899
  O         0.6568363410        1.9898208911        1.8573384960
 Si         3.0221712978        3.9071490763        5.9377253939
 Si         4.9761860876        6.0540840812        5.7801018423
 Si         1.7515700790        2.5862160686        0.8395556791
  O         2.8244934931        2.3418467617        5.7247732452
 Si         1.7145619056        1.1705217673        5.7245331886
  O         2.2482048639        4.6408422713        4.7342603208
 Si         2.5371025637        6.0477976727        3.9962941251
  O         4.5438823059        4.4919628825        5.9781817406
  O         6.4706845327        5.9765602689        5.1465796783
  O         6.4028321156        5.4791706672        2.5941022033
 Si         6.1164982893        5.6019717503        1.0029523513
  O         1.9881676246        4.1665154297        0.9886938896
 Si         4.4268852420        1.0206312370        0.8853833416
  O         0.9178786528        1.2465933346        4.3194841443
  O         3.2564675429        2.0772534228        1.0682759716
  O         4.6364613148        4.9736921830        0.6643976753
  O         1.0719369741        6.7342088175        3.9826129663
  O         3.7986286069        6.7060000593        4.8124057248
  O         0.5094692803        1.2474982675        6.8113016219
  O         4.8948109611        6.9676844029        7.1331788104
  O         5.9781710252        7.0803347832        0.4172942307
  O         5.8734787106        1.5691293217        0.4211473768
  O         2.6559367849       -0.0788797678        6.1202183847
  O         2.4104737186        6.4753359817        0.0047541153
  O         2.4043940900        4.2396597923        7.3880854104
  O         4.5655374806        0.3315736135        2.3244821939
  O         0.2597001952        6.6325687666        1.5115607146
 Si         0.8907598362        7.0383828014        0.1077953057
 Si         7.3834201668        5.9932209079        3.7938331837
  O         7.4743050891        5.0534865104        0.3310051104
 Si        14.7468576276        1.5905308150        3.1927270321
 Si        14.7051450712        6.6637368365        3.0183327067
  O         8.7873958027        5.1348311159        3.9072006360
  O         9.7154240042        2.6565869165        3.4121277427
  O        13.8626740230        5.3179068217        3.1655875035
 Si        12.8972444138        4.0821776422        2.8487919181
  O        13.6926642569        2.8086144750        3.4871736898
  O        12.5997187033        3.7281872425        1.3003106985
  O        11.4515508834        4.5616957977        3.4016472445
 Si        10.0628295993        4.1035089362        4.0874275925
 Si         9.8123915859        1.0397343613        3.5143756112
  O        10.5295927608        3.9884074753        5.6430007309
 Si        11.0475570672        4.7741302533        6.9526279548
  O        11.2894622532        6.3363636346        6.5675853501
  O         9.6072629098        0.7311025383        5.1093373301
  O        11.2025517645        0.4210992797        2.9081703144
  O        13.8497113269        0.2459046260        3.0782760641
  O         8.5574553061        0.3243354153        2.7407364367
  O         7.7181501196        0.4053393965        7.1224752884
  O        10.1472951063        4.3108001597        0.2507599059
 Si         3.6838267478       13.9125892733        6.9333601256
  O         4.1499501051       12.7951477028        1.3920674998
  O         3.6497397505        9.0411669690        6.2264924400
  O         5.5381246151        8.7154956929        4.2395903501
  O         6.3795794304       13.5254907951        2.5675416954
  O         2.7069662788        9.1256674580        3.8107023415
 Si         4.7831781452       13.7040143588        2.5747256661
 Si         3.3803540834       12.0893337879        4.6873369669
 Si         4.0879620963        9.3243651354        4.6848152866
  O         4.4122739119       10.8886916342        4.4835200799
  O         3.9812307473       13.3583099510        3.9065972106
 Si         1.3822957894       10.0990409093        3.7277941018
  O         6.2998597251        9.2078062636        1.8021259856
  O         3.4159872849       12.4782244278        6.2430232098
  O         1.9239913320       11.5792053412        4.1618732204
  O         0.7389714076       10.1219047905        2.2361136344
 Si         6.8538883236        8.9274651445        3.2996659288
 Si         6.4244467554        8.6077469853        0.3079235416
  O         5.2454992003       14.3504345623        7.0616049248
 Si         0.0596881950        9.8896696824        0.7783773435
  O         0.8196573780        8.6455045968        0.0669291682
  O         0.1822025627        9.6247420678        4.7270882021
  O        10.6068871077        9.3805609040        0.1699514624
  O         7.7172198959        7.5539351036        3.4728952744
  O        12.2861932661       12.9296431925        2.9129223920
  O        10.2163863060       11.2022143023        7.2285147115
  O        12.7893279312        8.3897996054        5.5513070920
  O        12.8683975098       10.4532900755        3.8239771074
  O        13.7834094879        7.9675412030        3.2426962063
 Si        11.7684731724       11.6299202054        3.7471469127
  O        10.2899908726        8.7187733342        6.3955273688
  O        13.3644746761        9.7107240864        0.8250104328
  O         7.4659188283       14.1975180354        4.8166558172
 Si         9.6217501589        9.7477720488        7.4524867084
  O         8.7208495573       12.6760525602        3.0742532323
 Si        12.5190176977       14.4765677683        2.4782758662
 Si         7.7558832826       13.9385085517        3.2562319222
 Si         8.5497533310       14.7133840882        5.8951140147
  O         8.7214894345       10.8705942083        1.1725516648
  O         7.8926892495       10.1486622332        3.5751866779
  O        11.4526560817       12.2065951941        5.2085990749
 Si        13.6110350240        9.1269918768        4.3658392556
 Si         8.9193532764       11.1144751547        2.7530497556
 Si        11.6853707445        7.9113237792        6.6200832499
 Si        10.6876280773       12.5604724849        6.5605609332
  O         9.3744461091       13.4443095576        6.3920057979
  O        10.4638149652       10.8757208233        3.1518342747
  O        12.8644605433       14.4450014585        0.9018913238
 Si         4.2377231845        5.9197661279       10.6575691468
  O         5.9813196344        1.0634538219        8.9601760831
  O         4.5551930867        5.0152913348       11.9666792681
  O         5.2958942864        2.8224608068       10.8083939604
 Si         4.7112700867        3.4222141456       12.1923948868
  O         5.8135934767        2.9955053879       13.2791958994
  O         3.9761630466        4.9706429146        9.3826933872
  O         3.2337121241        2.9045794782       12.6100185886
 Si         1.8553478611        2.0594056458       12.8148784803
 Si         4.7786661324        1.6950677406        9.7922858938
  O         1.6855433054        3.7432639743        9.8041314351
  O         3.7233482495        2.4132467145        8.7933225437
 Si         2.9576391119        3.8504434831        8.8431292559
  O         5.5598396802        6.8100919864       10.3796987558
  O         0.6760791128        2.4891706565       11.7792947031
  O         2.3196463430        0.5124930940       12.6920448413
 Si         6.7832770179        1.9952225071       14.0983861416
  O         1.2492015315        2.2478831861       14.2868401286
  O         4.0708946572        0.5835999369       10.7086345381
  O         2.9163675947        6.8764466050       10.7916959004
 Si         0.4110681890        2.8612018850       10.2202680563
  O         0.3328583076        1.4985987024        9.3812176086
  O         7.3637230190        0.7268330844       13.2773816542
 Si        14.8980878314        0.5400901631        8.1507946936
  O        14.8469149686        6.3917376290       13.9472718817
  O         8.1368760596        2.7441946072       14.5283334270
  O         8.0539691559        6.6474894372       11.2840053529
  O        11.4651352203        3.6530938697        9.9679589299
 Si        12.7085412761        4.3985921280        9.2805153985
 Si         9.9370732264        3.5912370115        9.4657452722
  O        12.5414703244        5.9516457992        9.7110657961
  O         8.9628412404        4.3790338769       10.4638632128
  O         8.7991959758        4.8213324095       13.0271037502
  O        11.2839215488        1.4927608324       11.6257286921
 Si         9.1125926541        5.4972799951       11.6095901585
 Si        11.4754634740        1.2111846428       13.2119559299
  O         9.6286101970        2.0024771056        9.5377833076
 Si        13.2460442763        6.4416966128       13.7039913098
  O        14.0372353083        3.7357656503        9.8770875469
  O        10.6230772047        6.0637173124       11.6132324193
 Si        11.9758302830        6.7123049634       11.0167898894
 Si        10.2884614353        0.8719546048       10.4996866920
  O        11.7794474142        2.5670045854       14.0259040396
  O        13.1132472673        6.7049898440       12.1316101215
 Si         8.6627585545        4.2650945700       14.5262756541
  O         9.8897212785        4.3974445769        8.0522997607
  O        10.0483216297        0.5837220874       13.6957284277
  O        12.4591625014        5.0987163396       14.0935276783
  O         9.0630187661        0.1605751291       11.3035797658
  O        12.6953744691        0.1531527771       13.3760294440
  O        12.4570602432        4.3083882736        7.6612512477
  O        13.2966373389        0.3304352650        8.1471803390
 Si        11.7181242242        3.9245841810       14.8994463626
 Si         8.7587098166       -0.0039588625       12.9005255277
 Si         6.8915939478        7.6289672809       10.8046351967
 Si         3.8301137974       13.2451972561       14.8125000202
 Si         6.4961183226       14.7863078789        8.0366674632
 Si         2.9859145620       14.6415856569       11.4823255451
  O         0.6483811868       14.0162610512        8.2903476141
  O         1.7388919584       14.3552613066       10.5378169740
  O         3.4939463905        8.5477344328        8.9557688908
  O         4.0693009384        8.8018186550       11.7810819684
  O         5.0662490796       12.7785614279       13.8724789959
 Si         3.0656570689        8.4803415334       10.5447374309
  O         1.8554935360        9.5249991695       10.7923645503
 Si         1.1792088837       10.9953052812       10.8073338085
 Si         5.0427803681       12.5278287678       12.2850628603
 Si         5.3182107750        9.4199977099       12.5705474520
  O         1.0813766455       11.7023475267       12.2841723045
 Si         1.8464515123       13.4665663566        9.2124914402
  O         1.9107722659       11.9445476244        9.7130900799
  O         6.1497530639       13.1147908833       11.2822471683
 Si         0.9094229594       12.2911425529       13.8103025333
  O         6.6210774202        8.6386548919       12.0348322701
  O         3.6443716598       13.2188615697       11.8611068850
  O         5.2290787853       10.9537694230       12.1171940900
  O         5.4020417255        9.3020401885       14.1879148701
 Si         6.9260625136        9.7534078585        8.5700011534
  O         6.7256712023       11.1269856363        9.3862560738
  O         3.2346623103       13.7797449502        8.4701555973
  O         7.1387902191       13.6096471450        8.9688124398
 Si         7.1436143468       12.4878796432       10.1517030081
  O         5.5672314223        9.4624237536        7.8059274355
  O         2.3874812551       12.7045654058       14.3510025680
  O         7.3060024398        8.5359915206        9.5486499013
  O         0.3368796390       11.1395330272       14.7671089416
 Si         4.3530111193        8.4613750042        7.5667101677
  O         3.9021619233       14.8572908852       14.7760916913
  O        11.7055045496       13.3637692147        7.4725729246
  O        14.7810440722       13.5286073904       14.0164439269
  O         7.9833440365        8.7259604882       14.7912533874
 Si         9.0805387027        9.9235277167       14.8603920740
  O        13.1827273435       11.8737523269       11.7927066278
  O         8.6337282985       13.3693016646       13.2687452474
  O         8.0337790987        9.8032928778        7.3971992148
  O        13.1956168491       13.0377005517        9.5437070493
  O        12.1977444914       10.6153066553        9.5570081147
  O        12.2829846825        8.3834618052        8.0548137154
  O        12.5302003818        7.6413134580       14.5209408672
 Si        12.1141516815       11.5837087432       12.9310658712
 Si        12.1904428798        9.1988303398       14.7398510362
  O        11.7086439156        8.2414988256       10.6290280115
  O         8.4556143386       12.0420206448       11.0270815974
  O        14.6800369351       10.7964672245       10.1221931278
  O        11.1320282936       14.7643355499        9.6191821250
 Si        13.2908124650       11.5834453977       10.2176483039
 Si        13.2266699795       13.9157771116       14.3650039199
  O         8.8062444076       10.7833753029       13.5111372346
  O        10.0449646332        9.2991458084        8.9500602848
 Si         9.1119956795       12.0207443874       12.5128436206
 Si        11.6057027789        9.1405650933        9.3193677204
  O        12.3722230191       12.5443080817       14.1910017365
  O        10.6985124628       11.9545604989       12.2797669678
  O        12.2874477156       10.0458272039       13.3653604655
 Si        12.3171713402       14.1201209527        8.7279049427
