216
14.949 14.949 14.949
 Si         2.5760248292        5.6369627942        2.5965190513
 Si         4.2079896003        1.8097918429        4.6581121755
  O         4.3990857977        1.5750314326        3.0695313142
  O         1.8348995763        4.7478947029        3.7392693768
  O         6.5499486118        5.5040407396        2.2295310471
  O         5.4321224597        1.0706500103        5.4114954370
  O         5.9002736903        5.4808038372        4.7352333069
  O         2.8280147968        4.9040047956        1.1552729739
  O         2.7480945837        1.2486083372        5.0609116628
 Si         5.5875157798        1.4783819438        1.9754579864
 Si         5.6199897069        6.2458827205        3.3450780917
  O         4.0344406874        6.1352999049        3.0683726563
  O         4.3873882441        3.3671299035        5.0692625030
 Si         5.0375867615        4.6565641446        5.8054924273
  O         6.3084571871        2.9043916348        1.9935327566
  O         1.3367971051        5.2209715514        6.3715133658
 Si         0.7222050530        4.8442678358        4.9334124942
  O         3.8804109019        5.5743986069        6.3933402558
 Si         6.9459001710        1.1348715326        5.9722963762
  O         5.9866446848        4.3159534385        7.0540103140
 Si         1.4545648124        0.3383407353        5.4315475385
  O         1.5867756848        6.8929603477        2.3254825129
  O         1.3281637164        0.4021773693        7.0435003223
  O         5.0661986813        1.0886709271        0.5014493795
  O         0.0170673307        0.9012415593        4.8999374766
  O         7.0593225575        1.9994260915        7.3099280138
  O         6.6447774718        0.3219258895        2.3297958245
 Si         2.5973383405        5.4459184041        7.3496085730
 Si         7.3679439723        4.0999521823        2.1249615466
 Si         7.3754359239        3.5805966924        7.3872434850
  O         0.0814828967        3.4102927212        5.2237854517
  O        12.6216333249        0.9946207540        0.7354424589
  O         7.9648287870        1.8196663747        4.8987395972
  O        14.5279390982        5.8959494643        4.4898337416
  O         8.2288299250        3.9841577844        3.4906908669
 Si        14.0266728963        2.1731146300        5.2368788206
  O        12.8833007232        2.4027423313        4.1513750803
 Si        11.6971027455        3.4154555675        3.7766309392
 Si         8.7760263111        3.2295045599        4.8105512610
  O        10.3738280806        3.0801471708        4.6491104385
 Si        11.2652894890        1.5874919826        1.4185670665
 Si        12.9853423931        6.3255793954        4.2514697849
  O        12.1173446151        4.9659023612        3.9917538839
  O        11.4560734898        2.9756037808        2.2374792228
  O         8.4622691333        3.9750579979        6.2330394923
  O        13.2081274345        2.0849293622        6.6247849642
  O         8.3147871162        3.9764249369        0.8208121984
  O        10.7011936927        0.3342167500        2.2482732235
  O        12.4602845175        6.0652512183        0.5781012150
  O        12.8696119260        7.2305972303        2.9055474637
  O        10.1364025097        2.0015580845        0.3421448017
  O        12.4669464081        7.1482133256        5.5654684352
 Si        12.9464212617        7.4275685943        1.2902383430
 Si         1.1489955725        7.6547357414        0.9686328235
  O         7.3824979263       14.6117983111        6.3936913184
  O         5.9769780203        7.8120605325        3.4877525901
  O         2.7372339970       11.5573909717        0.5678578880
  O         5.9794273520       12.3730872284        6.5671128462
  O         1.5781366400        9.2079947242        1.0852162860
  O         1.6589249125       13.7989807337        4.8262923205
  O         4.8418419166       11.1186140975        1.8372169690
  O         3.1513291963       12.8782192203        2.8307784881
  O         2.1665348788       11.2051757662        4.5750577137
 Si         1.8565316956       12.6000250854        3.7578964166
 Si         3.8064924416       12.2789407208        1.4900986753
 Si         3.1590297734       10.2629891294        5.4867264584
  O         2.4059593614        8.9765746021        6.1407129952
  O         4.3997091585        9.6400549090        4.6485924711
 Si         6.4218370333       11.1030564665        2.0894866917
  O         6.6462505410       10.3861698170        3.5032023680
 Si         5.9246832345        9.2018040357        4.3178369643
  O         3.7402907111       11.1379979794        6.7311580950
  O         0.5908245677       12.6040647941        2.7208238270
  O         6.3271134200       13.5381068289        4.2603421736
  O         6.8209717300        9.0611586007        5.6408985079
 Si         6.9895149635       13.2257715359        5.6887699899
  O         6.9695591214       12.6048077819        1.9819367900
 Si         7.1571159916       13.8820292100        2.9195555008
  O         4.5676811120       13.4661237441        0.7382538772
  O         0.2450272122       11.3820724653        0.3337330952
 Si         7.2752296237        9.5199573743        7.1089443264
 Si         1.6001998520       10.5255469815        0.1605455485
  O         7.1424743399       10.2258383706        1.0033243686
 Si         5.1171860784       11.4262268361        7.5283886792
  O        14.4841099864        7.6433180595        0.8315964662
 Si        12.1344178943        8.2037324043        6.7661897218
 Si         9.3331003655       11.7490871669        6.5331470272
 Si        14.5879965057       12.4479543062        1.3962680437
 Si        11.9724247918       11.5437880364        2.8682313419
  O         9.5497323797       13.0409996400        1.0317002276
 Si        12.0740079755       11.0616367581        5.7316409698
  O        11.8677548977       13.3581971772        0.4279682606
  O        10.5491586595        8.0619865738        7.0634317008
  O        12.4559891081       12.4561508585        6.4686350782
  O        14.2881599847       13.8630048250        0.5810009490
  O        10.9518279583       10.4489171279        2.2454036876
 Si        10.0501337796       13.8147865781        2.3948087485
  O        11.9749924614        8.6294716003        0.7536529264
  O         9.3429274378        8.9714279371        0.4923794411
  O         8.3758017049       12.4568313923        5.4752684556
 Si        10.7633015622        9.7070819425        0.8104241761
  O         8.7166887275       14.0398452500        3.2455371328
  O        13.2167028134       11.7885967452        1.9023576040
  O        11.1217343919       12.8815714170        3.1599032611
  O        10.4656605568       10.9574992843        5.7278967160
  O         8.3842865505       10.7025860780        7.3055359229
  O        12.6162110042        9.7083075617        6.3937995004
  O        12.6241062357       11.0466248942        4.2376724979
  O        10.0817989541       12.8528700913        7.4735222054
  O         3.7465316305        1.8271976143        9.4791983850
 Si         2.6032678907        3.0269159825        9.4469809494
  O         2.3309276388        3.5731945825       10.9651812524
 Si         4.8503896747        1.2080919010       10.5952286808
  O         1.2487440036        2.4184757506        8.7885887888
  O         1.8443040657        2.0382457056       13.0490831898
 Si         2.5945140844        0.6472488704       12.7466279522
  O         3.8958842115        1.0779593968       11.8813221775
 Si         1.8052102196        3.5693013404       12.5126009349
  O         2.9034033115        4.3143912191        8.4755543529
  O         2.6564111900        4.6284634832       13.4422897007
  O         5.9757536650        2.3264048076       10.4516444524
 Si         0.7336212687        0.9309342615        8.4427136965
  O         6.9622862385        5.9929708448       13.2072964614
 Si         5.8892033231        7.0093925213       13.9068946906
  O         6.8092245217        4.5634862401       11.1268431707
 Si         7.2844227739        3.2303017273       10.3599181520
  O         4.5896808292        6.2280193539       14.5394633891
 Si         3.0401414524        5.6516685861       14.6549456253
  O         6.9753926131        7.3208895525       10.9692831630
  O         0.2330182889        3.9026291666       12.6161469803
  O         1.9837960193        6.9021297533       14.7172719013
  O         3.1455729401       -0.0020916756       14.1078053209
  O         2.3284281339        6.9021815499        7.9709101318
 Si         7.4580587058        5.9195227315       11.6679326581
  O         7.7936721259        3.8016418662        8.9171946189
  O        14.1909426688        5.9756174418       11.5496167860
  O        14.0944870765        0.7474164193        8.5535009165
  O         9.0435687827        5.7287927222       11.3801660487
 Si        13.8070878264        4.5253944860       12.0802555112
  O        11.9630560891        2.2299753436        8.9637653431
 Si        10.1352224748        5.8066232440       10.1759429325
  O        13.1996302768        3.7324755401       10.8017334648
 Si        11.7783551954        3.2317653745       10.2131255656
  O        10.7976244073        4.4182011302        9.7224431544
  O         9.0438877449        2.9971928892       13.2945466633
  O        12.7174730124        4.6569075745       13.2726499856
  O        11.0376883715        2.5702974339       11.4728895314
 Si         9.6185357015        2.1046302831       12.0757405958
  O         8.4781516452        2.3240952972       10.9590891181
  O         9.4736003547        6.4837605956        8.8855376893
  O         9.9582967264        0.5880072699       12.5345967534
 Si        11.7189255810        5.5277614324       14.2065692349
  O        11.2962821303        6.7326392801       10.7909187073
  O        11.1145718801        6.7988697841       13.3948562752
 Si        12.7194530343        1.2599540127        7.9149233555
  O        10.5491762965        4.5733394448       14.6986927318
 Si         9.4765738576        3.3988504094       14.7989359317
 Si        14.2365148214        7.5499367104       11.6159375141
  O         5.7952339297       14.7728865655       10.8078474098
  O         1.2447313035       15.0250332374        9.6480271547
  O         1.6698768592       14.4507205733       12.0469791373
  O         0.3521951203        8.6405036248        7.6546410095
  O         5.2352562260        7.9669879917       12.7766156412
 Si         4.6319759726       14.6979356650       14.6619867088
  O         4.7205268510        8.4701734623       10.2106492361
  O         2.4105556307        8.6359715301       11.3694681425
 Si         3.3114688021        9.2470325325       10.1911785474
 Si         5.8459949218        8.4403527524       11.3559291063
  O         4.7248866826       12.6016570741       11.6935423833
 Si         1.5693735564       13.7949019115       10.5608087167
 Si         4.0635019210       12.2056441235       10.2885517545
  O         3.4018557437       10.7955854323       10.5614923617
  O         3.0103645905       13.3649793390       10.0316078657
  O         4.9782888703       12.1289326875        8.9670986685
 Si         5.9022795620       13.6325698115       12.0274507001
  O         5.6570704018       14.3653477261       13.4507972246
 Si         1.3097858044        9.2793121585       12.3438822562
  O         1.9134692597        9.9855371157       13.6325798818
  O         6.3162383240        9.9765951266       11.5319000217
  O         2.6579721954        9.2871218055        8.7340053108
  O         7.1363701156       12.5424873037       12.2026590386
  O         0.5928614968       12.5570408529       10.2913103150
  O         0.3458720183        8.0527284769       12.7100206232
  O         6.8878111148        7.9703527199       14.7815569495
  O         0.4110341350       10.3838553582       11.6183283927
 Si         1.9442197895        8.4216650805        7.5850182688
  O         5.9129187853       10.0435342574        7.8061981608
 Si         7.4755521939       10.9344881561       12.1480738787
  O        10.8045373560       10.9629289589       14.7088201011
  O        11.7972682144       14.9406001809        7.4722781390
 Si        11.6429678038       13.3270545016        7.5806650610
  O        10.3841058663        8.9652703791       11.9470725713
  O         7.8903385302       10.2115322866       13.5402734009
  O        11.0458097597       11.1213710654       10.3857547273
  O        11.3709693018       13.7778261044       11.1390309737
  O        12.2927654218       12.8755895583        8.9674129983
 Si        12.8971043891       14.5116907460       14.9566652997
  O        12.4584660718       14.7059547353       13.3765461193
 Si        11.9523645428       12.4346586319       10.4625419125
  O         7.9721382969        8.2204313492        7.7354263548
 Si        14.5888453783       11.2937639743       10.5699572162
  O        12.8784764855        8.0603033761        8.2136889619
 Si         9.9921496172        9.9683579171       10.7175280520
  O        14.6258244485        7.9882630677       10.1260172355
  O         9.8086318445        9.0608793095        9.4032963081
 Si        11.3670445801        7.6936653313       12.0861109198
 Si        14.1976634525        8.8051139766        8.8129747860
  O        12.8714399392        8.2325452695       12.1152139171
  O        10.2934337677       13.1245700024       13.3707965518
 Si        11.0441291410       14.3443944997       12.6065705847
  O        14.1249926176       10.3745652972        9.2961441579
  O        13.2824431995       11.9598309717       11.2224470129
 Si        10.5821184451       12.5557849285       14.8331267945
 Si         9.4694305310        7.9707452403        8.2682791158
  O         8.6991196030       10.7953616972       11.1292702141
 Si         7.8345884085        9.2958787801       14.8839269665
