216
15.02 15.02 15.02
 Si         5.1898861267        4.5925030905        1.0731895805
  O         4.2989873055        3.2662014546        1.2607783180
 Si         4.3310057347        1.7731436977        1.8572127047
 Si         4.5343087376        2.3362773582        4.8831995724
  O         4.8534610939        3.9081112570        5.1695337055
 Si         1.9757931220        5.6545144275        4.3737729519
  O         2.7109554267        5.3914922864        5.7863468893
  O         4.9975892082        6.3482274540        6.2700039307
 Si         4.2031209305        4.9630455146        6.2228172345
  O         1.6400479323        4.1469601336        3.8288673394
  O         2.9004591660        1.0222553798        1.7982889104
  O         2.9430583869        2.1886156500        5.1622109514
  O         6.3295968379        4.8450951489        2.1909109234
  O         1.0133063720        1.5567050837        3.5089765961
  O         4.2279571828        5.8655890031        1.1070529451
  O         4.8472792444        1.9550218406        3.3626948068
  O         0.6905696840        6.5894739769        4.6838353666
 Si         6.9163149366        0.5639423648        5.5897189780
 Si         1.5072671483        2.6899765931        4.5643114152
 Si         1.3793029724        0.6461575523        2.2010167285
  O         5.4826763390        1.3202489697        5.7072972907
  O         2.9801864245        6.4164215289        3.3619077656
  O         5.4058835892        0.8652297494        1.0876241773
  O         6.7480659280        6.2401763532        4.4607736064
  O         0.4700450254        2.8935313087        5.7822228779
 Si         6.3989418330        6.9936198280        5.8361000551
 Si         3.6441624378        7.0378343929        2.0275684149
  O         0.3986142407        0.9521442337        0.9557133865
 Si         7.3219994298        5.1654958777        3.4204738826
  O         7.3513043951        6.7332610778        7.1093113464
 Si         0.2686596425        3.0259445644        7.3789077550
  O         7.6566214447        3.7594830786        4.1408173812
  O         7.8987694982        1.1731110528        4.4575522894
  O         9.6205720692        6.1696600747        0.5529405419
  O         7.7527129908        0.9389454818        6.8983642798
  O        14.0019290213        3.0961466546        0.8617993194
  O         8.6937715781        5.7980614771        2.8913003988
 Si         8.5298427640        2.4720328431        3.7377708085
  O         8.3841683458        2.0355501338        2.1950325961
  O        12.2767530944        3.8325194198        2.6575768848
 Si        11.5621219091        3.5928091994        4.1150649205
  O        11.5737161406        5.0769964846        4.7697095300
 Si         9.5299373841        1.3510774996        1.3037089541
  O        10.0873423547        2.8938274002        3.9808576724
  O        12.2839971071        2.5772325800        5.1733518146
 Si        11.6773808755        6.5847379754        4.1849748227
 Si        12.9287233886        4.2500125761        1.2113387571
 Si        11.9404375221        1.0523855552        5.6772946686
 Si        13.9175515285        1.4894637593        0.7829086499
  O        12.9948142746        1.0136165522        2.0228205134
 Si         9.6811339719        6.7310360458        2.0373076331
  O        10.4880963196        0.9429451337        6.4067944346
  O        11.1682962306        6.5719695232        2.6490128876
  O        13.6018437020        5.7004001203        1.1622899453
 Si        14.3500173682        7.0958124484        0.9259918132
  O        13.0692305928        0.4010207110        6.6579638936
  O        10.4803053971        0.3138551912        2.1083154407
  O        10.3992987054        2.5844281322        0.7694184256
  O        11.8877112825        0.2193886720        4.3115121558
  O        13.1740734123        7.1872579181        4.2289486672
 Si         9.2627721647        0.9053681331        7.4516984172
  O        11.9522319551        4.3033923627       -0.0799538765
  O        15.0966290444        7.2796907519        2.3300756773
 Si        11.9547144000        0.0205839599        2.7275753123
  O         8.8538787211        0.6269200776        0.0699584440
  O         2.5734434941        7.7562404750        1.1139040321
  O         1.6331665256        9.5352029654        6.6477090701
  O         1.0089229134       12.1262005139        0.4593832739
  O         4.7851151434        8.1291619589        2.3502559012
 Si         4.1891731961       12.0788033838        1.0781489877
  O         1.1737622383       14.0691406291        2.4254065364
  O         4.8471946402       10.6412765201        1.3301476294
  O         5.2413568404       10.1704126040        3.8523419213
  O         6.1821454102       11.2775564666        5.9444964362
 Si         5.5087551053        9.9053145558        5.4184960239
 Si         1.4602267885       12.5371987825        1.9633740224
 Si         5.4735035388        9.5860277655        2.3705196686
  O         6.4312026572        8.5826805001        5.5499759050
  O         7.0207020367        9.4625600517        1.9488432824
  O         3.0514533126       12.3548241049        2.1814364667
  O         4.2125357985        9.4655104668        6.2621304713
  O         5.2343046566       13.2997505924        1.0201979606
  O         6.7275723778       13.9606235828        5.4828801483
  O         0.7041558545       11.4214733704        2.8135625301
 Si         0.3462058950       10.5012966112        6.5881729057
 Si         7.2284368656       12.5093311766        6.0673817316
 Si         5.4116369102       14.6169574266        0.1031188959
 Si         3.0644984116        9.5274962011        7.3862155072
  O         0.1631678821       11.3558038575        5.2517819656
  O        10.6380699860        7.5095168440        5.0018625324
  O         9.1665468928       10.4793958937        0.6342617842
 Si         8.6031747040        9.7148998217        1.9575467566
  O        11.3425679001       11.4094851707        1.6840318067
 Si        14.7041374789        7.5607364885        3.8524436636
  O        10.4085731510       10.1238546774        5.3938315210
 Si        14.7303067796       10.7400881637        3.8443486672
  O         8.9231562372       10.5674064585        3.2812856851
  O         8.6021328633       12.1249312925        5.3222787481
  O        12.5112268617       13.5425402256        2.5039409655
  O        11.7346696203        8.5327483776        7.0560200565
 Si         9.6769809710       11.2533873982        4.5216767711
  O         9.3103346267        8.2834446805        2.0435826421
  O        14.9331125226        9.1494667209        3.9944881528
  O        13.3849626969        8.3989631138        0.7025337749
 Si        10.4861748101        8.6898753230        6.0834220350
  O        10.8756557124       12.2235809008        4.0672449898
  O        13.2171991470       11.1174833686        3.4454473626
  O         9.1521458786        8.5980757378        6.9558118367
  O        14.0781375404        9.5493715670        6.6529649945
 Si        12.0250198464       12.0779878539        2.9512201143
 Si        10.6039218218       11.1733434425        0.2908961961
  O         7.5297460647       12.6555796975        7.6409115992
  O         5.6267566645        2.1966720102       11.1846575071
 Si         4.1906694836        1.8436947465       10.5546583980
  O         3.3605014807        1.0817225163       11.7511203072
  O         2.5878158698        5.6466140683        9.0772176521
  O         5.1491705439        6.2654265283       12.7461234767
  O         3.4403367530        3.1348934064        9.9359743830
 Si         2.9481021439        4.1182451078        8.7299916672
 Si         6.3152526600        5.2710702006       13.3200997445
  O         6.8144539299        4.1369050149       12.2788474002
  O         4.4638798283        0.6891128582        9.4428166270
  O         1.6298277329        3.5176117046        8.0599176626
 Si         2.5119875562        7.1868218195        9.5413241894
 Si         7.0315973117        2.5876070565       11.8480693436
  O         3.2936475778        7.1283634170       10.9522201885
  O         5.7966709408        4.4713710915       14.6167461878
  O         4.1486255364        4.2177526849        7.6527874527
 Si         3.9939070656        7.3765803379       12.3838370938
  O         0.4684323964        7.0464902010       14.7830889376
  O         7.4251405041        1.5817136456       13.0631617120
  O         0.9555424197        7.5790536335        9.7799848706
  O         7.6415425568        6.0935972684       13.7620878540
  O        15.0185160437        1.5656812661        7.9789107354
  O         8.2174761797        2.3558320433       10.7866177638
  O        13.2929306700        0.9488538528       14.4105337829
  O         9.4810861541        6.4879075722        8.4569233180
  O        11.8402176946        5.2404092745        8.7696327128
  O        14.2316523494        5.5471216551        9.8515010477
  O        11.1882379229        2.1865483231       13.3816219502
  O         9.6983404898        4.2299570454        9.8568010064
  O        12.9953257924        3.2133589772       10.0202831875
  O        10.8145623053        1.8693851852       10.4828222042
  O        10.4928880761        6.4276230508       10.7868114425
 Si        12.4267632129        1.7430175100       10.3726296682
  O        12.8979651819        0.6990350359        9.2345752188
 Si        13.2590198413        4.4998324209        9.0814981630
 Si         9.5218398800        2.6497052659        9.9060144472
 Si        12.2226891956        0.9331400755       13.2005657735
  O        12.9696935407        1.1880903707       11.7915667429
 Si        10.3978844707        5.5950928390        9.4270033011
 Si         9.2116360263        5.8610454103       14.0679365813
  O         9.3852911229        2.1951416719        8.3775709095
  O        10.0184196530        6.9557489096       13.2205356167
  O         9.6277585266        4.3041675079       13.7714901423
 Si        10.7699766367        3.3500192955       14.4245712272
 Si        14.4238593600        7.1436346712        9.7201839988
 Si         7.9896093791        0.2601035293       13.7955728013
 Si        13.9459041657        0.3793282594        8.0427481578
  O        14.0232547623        3.9881408064        7.7420172795
 Si        10.0047578061        7.6048055927       11.7614981200
  O         2.8272451662        7.4346856950       13.5216236238
  O         4.3011185713       14.9358009719       13.9873045024
  O         1.4857602124        9.4725675525       14.7117937996
  O         6.7718758787       14.3950739014       14.3225506186
 Si         0.8174304376       10.9098654666       14.4152131565
 Si         3.9165523472       14.7266347745       12.4358139736
  O         3.1212383837        8.2868641140        8.4674000267
  O         5.1611202427       14.2493954294       11.4899268392
 Si         5.1954197171       14.3137762769        9.8587876374
  O         4.5191095627       11.3439280197       12.5970014608
  O         4.6869758747        8.8226737640       12.2056012119
  O         3.9062971450       10.7111891032       10.3268406385
  O         4.3738402165       13.0639486912        9.2382852336
  O         1.6464687735       11.3416746973       13.0637387324
 Si         3.2902006758       11.8657911282        9.3384438372
 Si         3.1270742146       12.0278359324       13.1375525093
  O         2.9006329473       13.4661861135       12.4321985795
  O         1.7952222649       12.5173384718        9.6223003410
 Si         4.9526592966       10.2381897485       11.4880248220
  O         6.7279132191       14.3244206837        9.3899440688
  O         6.5097510547       10.0841189043       10.9478328647
  O         3.2072868945       11.0236477347        7.9806147929
 Si         1.8505499779        7.9091620171       14.7240742868
 Si         0.2979532993       12.6393094916        8.9331312379
  O         3.4515486967       12.1242245201       14.6918409119
  O         0.3831325165       11.5731719061        7.7531273765
 Si         8.4194845298        7.5849600730        7.9562245391
  O         8.5232898260        8.2147250028       11.4996778205
  O        12.8464862731       10.0129758439        8.9027145111
  O         8.9249640126       14.3154416812       12.9144991602
  O        11.4916857793       14.5031040093       13.1503424275
 Si         9.8886967536       11.8315623401       10.5631131739
 Si        13.0997939831        9.4736495673       14.5317796702
  O        10.2520280780       12.2832831522       12.0596493412
  O        12.9899655733       10.4578433501       11.4202481823
 Si         8.0549557891       13.6065613279        8.8243213030
  O         9.2471855092       14.5595182796        8.2988387370
  O        11.6397548181       10.1745679408       14.5540633150
  O         8.7686034718       12.8279795545       10.0113326012
 Si        12.7146816519        8.8983237863       11.7384216947
  O        11.3461446927       11.8785223490        9.8412470382
  O        14.8535956611       14.0856607569        8.3564008589
  O        14.0670215199       12.1981593115        9.8646399869
  O        11.1162318459        8.7509996330       11.5811291752
 Si        13.1020786189        8.9328332141        7.7469576875
  O        14.2371344638       10.6344080699       14.3924033597
 Si         7.9207296460        9.3494411004       10.4937006160
  O        10.3317585869       12.5807142608       14.5553175115
  O        13.7775383681        7.5921991694        8.3140958150
 Si        12.8115207863       11.1944227899        9.9956979347
  O         7.7365766885        8.5276972397        9.0918866456
 Si        10.2626431910       13.4370216864       13.1774649863
  O        13.6055383809        7.9011760030       10.8644083575
  O        13.1472044600        8.5417451968       13.2286388793
  O         9.1435959783       10.4055676014       10.4035809249
