216
14.942 14.942 14.942
 Si         3.5831320152        2.7160598407        3.0225576739
  O         4.3180338497        2.9037613187        4.4803800074
  O         5.4545228176        5.1410423368        3.8558300638
  O         3.3283195184        1.1664252039        2.6655820408
 Si         2.3786007077        5.7091901978        5.7217449711
 Si         0.8203149283        3.6607404399        3.9599172035
 Si         5.6784598949        4.7219111712        2.3188531724
  O         1.3206573433        4.9098904947        4.8236547543
  O         2.0761372858        3.3205855884        2.9913213734
  O         3.7465865420        4.8944158860        5.9927036282
 Si         4.9693770498        4.2653273000        5.1268893704
 Si         0.5570812897        1.2061316724        6.0218724474
  O         5.4765981259        6.0577027643        1.4855844966
  O         6.3278563272        4.1707843998        5.9889250194
  O         4.5600288362        3.5587095459        2.0011683745
  O         0.5089794318        2.4310476778        4.9721280343
  O         1.4979508541        6.0604633951        7.0512306748
  O         2.9087433985        6.9847715286        4.8980391062
  O         7.1974883643        4.2410147881        2.0075966983
  O         1.5796701274        7.3836172841        0.9120227526
  O         6.8966527461        2.4133313051        0.3353820645
  O         1.7376477914        0.1880242983        5.6432148210
 Si         5.4497682652        7.3782577240        0.5913022285
 Si         6.9415010709        4.6470454981        7.4226372071
  O         0.9871445785        1.6389562543        7.5309351675
 Si        14.8379470527        6.2186956913        7.3251993193
  O        14.4386340213        5.7308930302        0.9245474101
  O        14.4439004767        4.1523662948        3.1428072784
  O        14.5160975440        3.1614572262        0.8355211488
  O        12.2346217753        4.2403858099        1.5029474866
 Si        11.4817389817        2.9767924997        4.7825220081
  O        10.7861991259        3.7362430835        3.5777237627
 Si        13.8675809245        4.3728687336        1.6312630938
  O        12.4598251784        3.9037155129        5.6317109986
  O        10.1280257462        5.7076503557        1.9936962220
  O        10.3661303833        2.4109091194        5.8124225667
  O        12.3643634639        1.7379970562        4.2346182586
 Si        10.6837108854        4.1893308235        2.0523628543
  O         9.5431743500        3.2395704359        1.3279874670
 Si         9.9147410924        0.8632660189        5.8051494752
 Si         8.0003678081        3.5366300854        0.7901534560
 Si        12.6691864980        0.3364905386        5.0008594524
  O        14.0241772265        0.4897958389        5.8940819125
  O         9.1403780454        0.6619061966        4.3982609956
 Si        10.4158004502        6.9801063539        1.0496081326
  O         8.8859892605        0.4947832412        6.9609018166
 Si        12.5253913382        4.2573205542        7.1884162132
  O        11.3185023872        0.0122085378        5.8793473858
  O        14.0216025591        4.8235595125        7.3888623522
  O        14.1926277551        7.1329793391        6.1469954210
  O         2.3229304604        9.8803758220        0.5019910006
  O         4.1524003849        8.2156350642        0.9138773334
  O         5.0589287012        8.3158055093        6.7052691281
  O         4.5659952285       11.0398091469        6.9808736139
 Si         3.4912213470       14.5009869956        2.6603026524
  O         2.7358422490        8.7958581730        2.8972108542
  O         6.7500379974        8.3060702693        0.8339323868
  O         3.0852108461       13.8655615741        1.2508900166
  O         5.0649482294       14.2843990215        2.9047953452
  O         1.3319942374       12.6142026520        5.9768372224
  O         3.8002146348       13.3712861969        5.8836989178
  O         2.5682437794       13.7045122208        3.7233539875
  O         0.8695628064        8.4587866195        4.5671667892
 Si         2.4465201176        8.4536658507        4.4283962191
  O         6.3006637894       12.7889327136        6.0638703961
 Si         2.3412828694       13.6843007617        5.3180654924
 Si         2.6545901631        8.5397087347        1.3134613841
 Si         6.3424977403       13.4649526302        2.4014548624
  O         6.4733445953       12.2101529277        3.4083104221
  O         3.1551670328        9.5408234859        5.3905147877
 Si         4.8636994849       12.6286548427        6.8114483931
 Si         3.9855581838        9.5306434764        6.7755642466
  O         6.1428571231       13.0205419736        0.8754250295
  O         0.5034314570       13.9525663632        0.9171416027
 Si         7.2126282435       12.2279963572        4.8569941705
 Si         0.5069530832       12.0408322901        7.2376455457
 Si         1.9293561464       13.6902291466        0.1640434800
 Si        14.0013332325       14.3234619792        0.2779745091
 Si        11.3547807626       10.9314122659        3.6375095716
  O        12.7828493881       14.1801379139        3.8234420862
 Si         8.9602571128        8.4126597485        7.0280680563
  O         7.7081558762       14.3586633730        2.4900888640
 Si         8.5684227325        9.7613014152        4.3766785626
  O        11.7223601767       12.0449315198        2.5420420970
 Si        12.9932832616       10.7667355237        6.0766319988
  O         8.3809046306       10.3893085306        0.4795362860
 Si        11.9023388205       13.6476369978        2.5653585929
  O        11.8712299540        9.5370101458        3.0734734927
 Si        12.8142016724        8.4613688151        2.3669409652
 Si        14.2974350418        8.1656757326        4.9134491110
  O        12.1941903101       10.0338870167        7.2352121533
  O         7.8715517635        9.3626128186        2.9744756614
  O         9.3699474770        8.1422924156        1.3278408750
  O        13.9360026846        9.2124557555        1.4616623988
  O        13.7781978361        9.6197970567        5.3099841158
  O        13.9447698650       11.8744644578        6.7224069131
  O         9.8079959266       10.7026778306        3.9691384525
  O        13.5288492461        7.6395828421        3.5745362839
  O        11.8978814223        7.5353207762        1.3978865527
 Si         8.9629557034       14.2800562614        3.5063269753
  O         8.9686176145        8.5488876207        5.3924703994
  O         8.5530329966       13.1163013065        4.5788160196
  O         7.5626904662       10.7052518639        5.2238724426
 Si         8.0599129682        9.0683433483        1.3884750407
  O        12.7136768389       14.1078841211        1.2412795894
  O        12.0365477157       11.4535239308        4.9949871180
  O        10.3504333459       14.1273020857        2.6742657553
 Si         2.6873135332        3.0351867372       11.2172209242
  O         1.9791901273        2.4823578926        9.8643601211
  O         1.8380777488        4.3196314740       11.7162657836
  O         5.7968636214        2.3521332097       12.9290038987
  O         5.9798724165        4.9087469538       12.4425225273
  O         4.2270915491        3.4921613854       11.0432007472
  O         2.7508260715        1.8272984363       12.2887217485
 Si         6.2143151611        6.4552769530       12.8341481789
 Si         0.8568456864        5.5318833963       12.1196924549
  O         1.0768860251        5.8922938205       13.6910072346
 Si         6.6884894577        2.1992912208        9.3338351012
 Si         0.8738634401        1.5361919944        9.1466746680
 Si         2.6904336051        1.3780066035       13.8361974475
 Si         5.6643782188        3.4714955790       11.7976372657
  O         5.4666890096        1.1292850507        9.1203121488
  O         6.7427159736        2.9835425036       10.7253036022
  O         6.4814823938        3.3965153788        8.3012259786
 Si         5.8204537298        1.6101237885       14.3341402799
  O         0.9867264944        6.8095828015       11.1330105732
  O         5.2296943010        6.8920886133       14.0162470075
  O         4.1628136573        1.5021023149       14.6079957303
  O         1.3880289414        2.2358928696       14.3484532375
  O         6.2278027289        6.0637625589        7.7904711158
  O         6.5597112812        0.1674856962       14.2864896101
  O         0.9314511549        0.0837224932        9.8720961832
  O         5.9868165066        7.3740957897       11.5586783654
 Si         0.4201625616        6.6979563426       14.9415874305
  O        14.6064405279        6.8080007838        8.7994557629
 Si        14.6980425558        2.3225770271       14.4484862659
  O         7.6785809028        6.7422470454       13.4509455754
  O         8.0629923601        1.3319546710        9.2168786664
  O        14.2902324820        1.9133475990        9.3849282555
  O        14.2838395124        5.0764381367       11.8689761838
  O        12.2878832154        2.9802899601        8.1465430291
 Si         9.8996725745        5.6075102089        8.1780102833
 Si        12.7643667581        2.2960509785        9.5136821168
  O        12.7737661508        3.2345112727       10.7838808786
  O        13.7841632059        3.0039037408       13.2667029382
 Si        13.1516326634        3.9863661310       12.1280654315
 Si         8.9190995666        5.7530562751       13.6784078163
  O        10.2045779119        5.3138072818        9.7704699983
  O         9.3790791892        5.3965190808       12.1904515406
 Si        10.7015519585        5.6237290187       11.3121025873
  O        11.7697584943        4.8151545211       12.2744588050
  O        11.7827931986        1.0598084917        9.8794979096
  O         8.3002757819        4.4805081122       14.4512829392
  O        11.2754001727        7.1172458717       11.2169609271
  O        10.1407961528        6.4718064188       14.4677268648
  O         8.5566846857        4.8214297562        7.6393014601
  O        11.2903073849        5.2309029372        7.4679695420
  O         9.7103174241        7.1311876007        7.6473390580
  O        14.0273871230        0.8910772270       14.6906129201
 Si         6.0537616256        7.6748144975        7.8060693147
  O         2.2349052177       14.7756316282       13.9459448056
  O         3.0716858237        9.1361766888        8.0531549516
  O         0.1650044625       10.3806702931       14.1938825149
  O         4.6556327789       13.4439115361        8.2200105900
  O         5.4779394592        8.1444409871        9.2206298398
  O         2.4965315104       10.7151898808       10.1141559025
  O         2.4191445479       10.2199939518       12.7735087950
 Si         5.5492385150       14.4394968731        9.1390806576
  O         5.7252268308       13.0323403661       13.2018246410
 Si         3.3413892728       10.5915724526       11.4826469875
 Si         5.3702544701       12.8081850073       11.6640624381
  O         3.9739906414       12.0450731467       11.7000966177
  O         4.5670823423        9.5445917939       11.2874493321
 Si         1.9014545067        9.8569933128        8.8868385787
  O         5.3092863598       14.1084464904       10.7078751494
  O         0.9067152289        8.8759630548        9.6274198345
 Si         5.8064310563        8.6940001207       10.6846939680
  O         6.5564145373       11.9513239437       11.0282682865
 Si         1.7517090620       10.6849971639       14.1825700144
 Si         6.6947945490       13.5032950630       14.3810479097
  O         6.9779463728       14.1110851847        8.4703479638
  O         1.0889751837       10.6308072617        7.7281166843
  O         7.2056472868        9.5342347433       10.6214131222
  O         0.5749452560       12.9449036159        8.5613716920
  O         1.9914985618       12.2463079106       14.4284804331
 Si         0.0289688374        7.6497441373       10.1201039059
  O        12.7924779745       14.5262032906       11.9493506613
 Si         8.3625435394       14.9130967786        8.3773278067
  O         8.0542047912       10.6219526821       12.7870635113
 Si        14.9068384456       13.7259855759        9.8257821540
  O        11.5398264575        9.5643505615       11.9658614165
  O        14.4416428485        7.8661184482       14.2815061765
  O         7.4621894795        8.3788642285        7.5526627591
  O         9.3822613630       13.7652554595        8.8050267922
 Si         7.7565800420       10.9209301603       11.2343290190
  O        10.9592439010       13.5236794263       10.6327733937
 Si         8.7700576071       11.2545454683       14.0922447884
  O        10.3736429075       11.2068995130       13.7815823140
  O         9.6474033942        9.7241448768        7.6481522841
 Si        11.7656322244       10.6605688803       13.1246910962
  O        10.9579397316       11.6171495564        8.8717931972
  O        12.5993211203        9.8859498112       14.2744626263
 Si        12.0093673075        8.4890396211       10.8656973449
  O        13.6096482443        8.2171056407       10.7953366844
 Si        10.0211242219       12.6063431309        9.7110460597
  O        12.6116546483       11.8590801459       12.4434911269
  O        13.9585645724       13.3580264925       13.9390186009
  O         8.1567207164       12.7806270383       14.2054042137
 Si        14.0218447860        9.3498290459       14.7810327892
 Si        11.0496275886       10.1036964185        8.3383382908
  O         9.0411585787       11.6226105748       10.5418307861
  O        13.3556417544       14.0318876109        9.4611048909
  O        11.4562398906        9.0459756643        9.4651800702
 Si        12.1740743080       14.5500843702       10.4513064672
 Si        13.5594927669       13.1637834475       12.4117056408
  O        14.7791227358       13.0186260576       11.3045386706
