216
15.043 15.043 15.043
O      14.270799260000004      1.071722782799994     14.150637827399988
Si     14.534994156700005      1.618868361799991     12.644575553299999
O       0.886733994700007      1.162397754999993     11.944489156599998
O      14.367678407800009      3.250831319600001     12.728105979299995
Si      2.134325859700007      1.077746245299995     10.894212448700001
O       2.594510633100001     14.646183685400000     10.374837423099992
O       3.391878903400002      1.636792471999999     11.722442557899992
O       1.830422656199993      1.998590046600000      9.566039839199997
Si     13.297007339300004      0.093625142899992     15.014990121999995
O      13.415640685700005      0.841312912699997     11.787225955099990
O      13.263204190400005     13.684928508799999     14.301175400799991
O       4.025350470300001      3.938708821699998     12.802914341300006
Si      0.073095053400006      4.613826892799992     13.215943908499995
O       1.497188161600003      4.598259218799997     12.496476222100000
Si      3.007581471900012      5.077278838599999     12.336012809600000
O       3.705129315500002      1.927254198499996     14.392990296599995
Si      4.195694994100005      2.355661792800000     12.909078720899997
O       0.400475120800002      4.534828272099992     14.790895557499997
Si      3.194780520000011     13.164928889599999     10.643197722199996
Si      4.311552044700009      1.640851053700002      0.821580282599992
Si      1.132686486800004      5.207754916599998      1.016405025499999
O       3.082729704400011      5.382325298499999     10.776379656399994
Si     12.000635556100008      0.845110764199997     11.041759249699998
O      12.090982054800005      2.108937822999990     10.072300758999992
O       4.725479126500005      0.065272423599993      0.832574592599993
O      11.768890387000006      0.613668501300004      0.194784934799996
O      11.692176262700009     14.488992535799996     10.290093210699988
Si     10.252505515199999      1.122219780199998      0.455797922199997
O       5.749131804500013      2.021094975299997     12.736067337299998
Si      7.956624626700002     14.192052667699999     14.831038600099992
O      10.827432706399996      1.072441174300007     12.114916330599995
Si      6.852495253500008      0.894624646999994     12.513340348599996
Si      9.664097795900005      2.024544464399995     12.671000564899996
O       8.253640385300010      1.536745253900005     12.098427422899992
Si      9.541379951300005      4.627590006099993     11.082087095099993
O       6.369267147300018     14.973088487499998     11.329036157299994
O       9.825590742399994      3.522351680499994     12.187433115099996
O       7.074625405999999      0.136375667600013     13.913231213399992
O      10.519811186600009      4.307582303499999      9.839111814100001
O       9.743884949200011      2.021636549800005     14.264807025499991
O       8.007931556399997      4.690317610699993     10.607444167999999
Si     11.289974420500007      3.104826021000002      9.115674667299992
Si      6.388674748500009     13.531641934099998     10.631324573399997
O       9.195487447000014     14.934209175999994      0.524888498599993
Si      7.006370697500001      4.980129962599999      9.388820767299999
O       6.997793643000007     13.678662737299998      9.113870039700002
O       6.925607939100011     13.615640397899995      0.899212304399999
O       4.819615841300003     13.061872966999996     10.533887093999992
O       8.568269597900013     13.070336743299997     13.846597073599993
O       5.492296816900005      4.986891676600000      9.908346568900001
O       2.766561595000012     12.822935364300001     12.173648569999996
O      12.719825543800001     12.833862347300002     11.884824966699991
O       2.208838997199999      6.330924766000000      0.575965184999995
Si      4.088630904800006      5.702555738499993      9.595101817399998
Si     13.678762780600001     12.637669114299996     13.145321204399993
O      13.107266617500004      9.614627928499992      9.590932044599997
O       0.204288896599997     12.820720966300001     12.793541175099994
O      14.358576390600003      6.016190559799996     12.892087204200001
O       3.176016070700010      9.600487938700002      9.815541377499997
O       3.386282800700005      6.345044850400000     13.229330036899997
Si      2.234829616600004      9.923562761099994     14.928591414899993
Si      3.235213989700010      7.111892179099991     14.629313895599994
O       2.445952008000009     12.046961422299994      9.681288345199995
Si      1.890965364800004     10.530041011400005     10.051217787499990
O       1.356383933700004     10.713405840499991     11.561121398399996
O      13.506466107900005     11.090645673499996     13.513867343499989
Si     14.455200794400010      8.722765546699989      9.785418961299996
O       1.903429978000007     11.177966222499990     14.002450931299993
Si      1.529452043600005     11.902088254900004     12.644176915199996
Si     13.688691341100006      7.437071309499995     12.471772877099999
O      14.527882702100010      8.214277994500000     11.326292072199987
O      13.492935894400009      8.446101509799995     13.742453829699990
Si     12.850017976000004      9.849127213899994     14.277112479799992
O       2.536169537900001      8.512414941399992     14.221185781500004
O       0.654979452899994      9.706730974199992      9.364448092899995
O       4.338951403300005      7.276937432299997      9.593236785799995
O      13.290663921500004     10.081101338799996      0.764479262799997
Si      4.422585566200007      8.818385522299998      9.196057367600000
O      14.444537999599996      7.334942282300000      8.935220244299995
O       3.631761668500001     10.240825219499996      0.599530741699996
O      12.239581142700004      7.111884666199993     11.877449084699995
Si     12.066001447800002     10.595215376199999      8.831163414799999
O       0.953907057000001      9.770407740099994      0.828461089199996
O      10.050271145500014     12.909634442799998     11.628233338299998
O      10.742465877600011      9.759394746599998      8.422023700400000
O       4.699849514900001      7.261973754599994      0.278721584899998
O       7.301085099800002      6.398640748000000      8.665228223500000
O       7.469101500900010     11.271877186699999      9.116011523500001
Si      9.800263841000003      8.544367261999991      8.911956061499998
O       7.380458580499999     12.596125927399996     11.550721259700000
O      10.673814214300009      7.654234992999999      9.920511789599990
Si     10.703110247000005      7.343937964399998     11.508704061300001
Si     11.485422462000010     12.989816329100002     10.881025314599990
Si      7.195684231400008      9.720455165599997      9.249554789000005
O       9.992396680800004      8.450330288799989     12.422144642399985
O       5.751227772300001      9.450520051700000      9.909210630799999
Si      9.775320745700000      9.602118974200000     13.519914797000002
O      11.614238710600013     11.834688929100000      9.764585062899995
O       8.814494764999996      9.221041267500000     14.760994400799991
O       9.038601044200004     10.798421833700001     12.731639608299997
O       9.891400569000011      6.006963625500000     11.788342330099997
Si      8.742529395200000     12.347459745099997     12.410577405399987
O       8.549511393500003      9.066121050599996      9.837935898000001
O      11.243800034200003      9.931650497100001     14.133249567699997
O       7.323679890100012      7.504799801499999      0.978757525599996
Si     13.092322486900004      1.318773859100005      5.105886167400003
O      13.967502415499998      0.382696795300000      6.069289815500001
Si      0.041496888099995     14.569017096600001      6.828658319300008
Si      1.807374447400010     14.347989303900002      4.334752011100003
O      13.732185242899995      1.472967031899994      3.643181067900004
Si     14.724357885500002      0.784395722100005      2.580241112300000
O       1.287432625200007     14.393046497600002      5.841759224099995
O       3.170360717000005      0.144133326300002      4.122696717400006
O       0.653196172100004     14.795841965500001      3.333531598499997
O      13.200354150700008      2.796641178899992      5.852965462199993
O       1.981072896999997      2.243028088199991      6.783986314800000
Si      2.348211408200002      3.177168120499999      5.492398269999999
O       1.591782194499999      2.726144129600002      4.119378116499991
Si      1.879885944400008      2.678846671599997      2.501299073100002
O       2.056465369900003      4.683082897800000      5.982185413500005
Si     13.673966207900003      3.560360638599994      7.247456475299998
O       0.580751656500001      1.936252326199991      1.912034971800004
O       3.850462096300007      3.194111410699988      4.969983496199996
O       0.650478862300010      0.290064015100002      8.098119613599994
O       3.235543250400003      1.933719814199997      2.001926312499995
O      14.351885739099995      5.039274008899997      7.250525712300004
O       1.984877068400008      4.136016431899997      1.849597054199998
Si      1.103464322700002      1.843465545000009      8.120607077899994
O      14.759225486900011      2.659054313699992      8.030448219800000
O      14.349141585099996     13.212100960599997      7.259731997600007
O      13.949555555700011     15.020683103699996      1.439842978999998
O      12.330192619600005      3.745459848899997      8.100947922000003
O       3.406539603300008      5.219272031399999      8.214910215699998
Si      4.762671017700001     14.933066512999993      4.294081634299998
O      11.706234499799997      0.455214539100003      4.822273988800001
Si      5.451700005600002     13.835069477699996      1.529000682099998
O       4.965705875600002     14.010089628200001      5.597484308100007
O      10.129440023300004      2.089898129900002      1.760967008499996
O       5.514670812500007      1.291448445399993      4.355283680100007
O       5.501149182000007     14.157527037599994      3.099247406300004
O      10.360133331100002      2.871933240700003      5.924218829899999
Si      6.370601315800004      3.782177541499997      1.903827795499989
Si      9.474824034700005      3.529947338700006      2.133634325899996
Si      5.367855736100005      2.843408776800000      4.700634166599992
O       5.983499960900009      3.122836544099997      6.143401711499996
O       6.050141183600010      3.660667269000001      3.493305479299996
O       9.438840815600001      3.822999471300000      3.723126491799993
Si      9.741148911499998      1.740916353400003      6.943024111899998
Si      9.653385511300000      4.190306998799997      5.275159599399997
Si      7.373283747900011      3.277293419199999      6.872267812299999
O       8.140531375300011      1.860565652000003      6.849792386800001
O       8.253067227200010      4.366559169899993      6.065524145199994
O      10.135487262900007      0.206190657799996      6.707240122399998
Si     10.832230462700004     14.314622944199996      5.579416181599994
O       7.945144319200008      3.579505014299996      1.617202617399993
O      10.375231951600005      4.692207064799994      1.456001965399996
O       9.582479689900012     13.448772768599998      4.900423489100001
O       5.968790981000009      5.271575062400000      1.439753358900000
O       5.575991035300004      2.636536279299996      1.077281705299998
O      10.198218547300003      2.169215047999998      8.412137728700003
O      11.923956366600001     13.224958528499997      6.075865413299992
O       7.159710581700013      3.758353744499999      8.365559699100000
O       2.150553296800007     12.840093073799995      4.024226864000003
O      15.001900310799993      5.709702236099996      1.988492221900003
O      14.364078673600000      8.204351751000001      2.070118695199996
Si      2.655134071899995      5.841759040199995      6.924553412299993
Si     13.212706552000002     12.338425834799999      6.497531276400000
O       1.375955732100008      6.704599834999991      7.401281741200005
Si     13.831250787700004      6.729331446899998      2.352978297599995
O      14.758639324500001     10.730260830700001      2.868330015799996
O      13.968330334100008     11.738651443000002      5.202765449500001
Si      2.699277259900002     11.406368061099990      4.430142306100000
Si     14.835376893500001     10.588908951600001      4.475590380100003
O      14.051428544199997      7.423214643000000      6.462230187799999
O      13.584085617800005      6.697054901799998      3.947213493300000
Si     13.382681384300005      7.815012409499997      5.093535835299997
O      14.054592627200009      9.218472174499988      4.746459751599994
O       1.364146180199999     10.627488765200003      4.981483775300008
O       3.078393218600000     10.782534924299995      3.011302334299993
Si     14.813127847200002      6.567644186399999      7.552146408300001
Si     14.609593151499997      9.718542480299998      1.623184738599997
O       3.764296715800008      6.720492207399998      6.156111975399998
O       4.103322400300002     11.576026802099992      5.286291566499999
O      12.722754984900003     11.175428764799999      7.482984587699999
O      12.481209013100003      6.338053853599996      1.526059501899995
Si      4.226120823000006     10.942400488100006      1.895582456800000
O       4.484358103200005      8.828679369799993      7.563464455000002
O      10.361534663800009      5.634056144299999      5.517885099500006
Si      7.521500000000000      7.521500000000000      7.521500000000000
O       7.078769185400013      9.058110122299997      7.790817971399998
O       6.857875599600007     12.289302245600002      4.897467431000008
Si      5.871853084100010      6.876570905399998      1.334693347599996
O       9.343310686900002      8.195729391599990      4.829093768799998
O       9.025008766000006     10.873053549400002      4.592782276699998
Si      7.200472442300002     12.449333168500001      8.061810969100002
O       4.646099280200006     12.434815176999997      1.451121532299995
Si     10.511214298200011      7.080153311899997      4.771732796800004
O       4.724737422700002      8.756320760800001      4.906639361699996
O       8.393744617399994     12.435679219399997      6.941256905200003
O       8.957446749600003      9.146079203499998      2.387442933800001
O       9.166186438300009      7.725604746999998      7.633635811200001
Si      4.866511035400009      7.897109240900000      6.274378028499999
Si      5.655192192000008      8.877053956699996      3.588835358299994
Si     10.876731629700005      6.203600910299999      1.733423014700000
Si      8.654247409400005      9.389753704299991      3.977995803800003
Si      8.473457298400007     12.264453593700001      5.296141690899999
O       5.815968985800001     12.195385524300001      7.253829878900000
O       7.096720857500010      9.149536296200004      4.202132942500002
O      10.602784479299997      6.639445224199999      3.241631971399999
O       5.431864451900000     10.093023451599990      2.545985452799995
O       6.373547293700010      7.195841613499992      6.390008207599994
O      11.788837714599998      7.894404718799994      5.295846745399993
O       5.503021417800006      7.492925614199992      2.783199439100008
Si      5.423589660800005     12.463419053599996      5.712708460499993
O       9.976498959500006      7.201060045699998      0.831927565899997
Si      8.755542496000004      8.267656577700006      1.014994461299995
