216
14.83 14.83 14.83
Si      3.842203804000006      5.660732194900000     10.424358120200001
Si      5.867255472499997      5.240308286600002     12.818312222899999
O       4.559761729299997      4.927413188500000      9.166364919300012
Si      2.738651942499996      8.478943402000002     10.591057811100004
O       4.728482725700006      5.253392226800002     11.695586687799992
O       3.820544792300005      7.298753293900000     10.310838261700006
O       2.334247346600003      5.089383461399996     10.549410392599992
O       7.222740715499989      6.016835140800002     12.445295746099999
O       2.265126392600002      9.198558384699993      9.238606734300006
Si      4.425353218000002      3.653302970000007      8.176145908099997
O       6.290073969499999      3.687806373700007     13.084127875900007
O       7.623840612600006      8.539058445000006     13.350454399800000
O       1.454424234999994      7.792479442699997     11.227582409200007
O       6.645449845000001      9.852305183099995      9.487408433300015
O       3.183116519599995      9.630940389699990     11.632366633900000
O       5.223796455400009      6.081346866100005     14.029196931500000
Si      8.066556775100002      7.380067194599998     12.322620932000005
Si      6.000470546800003      9.941286296999992      7.996473425100000
Si      7.415000000000000      7.415000000000000      7.415000000000000
O       7.771648238600002      5.903490593399991      7.925965519199999
Si      1.151920966799995     10.096032360999992      8.498092430300002
O       6.070091642500000      8.369592334000000      7.507506488499994
O       7.864895439500002      7.888432553999995     10.815213538100000
Si      8.041275950399999      9.014138201899996      9.692299053600010
O       2.431254209400001     10.118187663499999     14.083808057599999
O       5.817954853499996      2.936965036399990      7.828284417899998
Si      0.780467170499995      4.648485255799993     10.395516999400002
O       8.443681294000005      8.318906491000003      8.273660649100002
O       0.458745991199996      3.518468924399994     11.481582695200004
O       0.377085333999991      4.013237416000000      8.966023415099997
O      12.070331928499993      6.815104496899999     13.613082551000002
O       9.597513641899997      3.938750035400002      8.333489985700002
O       9.605985904499992      7.065385168899994     12.684658024500001
O      14.629594557500003      5.917539883200001     10.564522339299998
Si     14.748387758600000      7.394970846600001     11.184198336400003
Si     13.391733719999991      8.771111506200000      8.861949156399994
O      13.882591211899992      8.473896691500002     10.370881543900012
O      14.297754007899986      7.471533599700000     12.694556858399999
Si     13.119958274799995      8.052988138799993     13.582710349099997
O      12.395554083200011      9.375626620900000     13.021572202000014
O      14.707378425899993      9.213500133699998      8.015606704000003
Si     11.187940193600003      3.567194442599996      8.550314950100010
O      11.915831978999991      4.937471404499994      8.165014805399998
O      12.307729421000005      9.951348320099997      8.833498424500013
O      12.737657534500011      7.416680249100001      8.354474960400005
O       9.261409955599987      9.940355875599998     10.069744448900003
Si     10.518984086300005      6.952610582099994     14.000600106599984
Si      0.430851797799995      4.576935120199997      7.460988928400000
Si     12.670041770799992      6.131369299100009      7.419814991399993
O      11.748006445800016      3.191875214499999     10.053388522300011
O       4.468167492300005     10.362981193999993      7.752711588800001
O       7.783786501800005     13.719505715500004      7.674802371300001
O       3.416743633000004      2.535811399499995      8.752508178900005
Si      2.473150642200010     10.735947307799988     12.582701675300003
Si      3.766296087499995     13.376819010899984     13.488152180600011
O       3.990319416400001     14.572147274599986     12.459385582599998
Si      5.030998376099994      0.038146087800005     11.273762529299997
O       4.165669777399994      0.233481371899997      9.911108573499995
Si      2.924636061599990      1.249496181100007      9.609581855800013
Si      6.792011521100005      2.260880927099991     12.515610321000002
O       3.336948063600002     12.085977712899997     12.627861550100008
O       2.405844372399999      1.804352233299998     11.051767531499994
O       5.711771276500006      1.464138135700001     11.617479385099999
O       1.781064143400005      0.479839888600001      8.735005841300008
O       6.124308843900008     13.649636036499993     11.215694805600005
O       7.129964740800001      1.290310608500004     13.774157944500008
O       8.035981960000001      2.445354448999997     11.458240234900011
Si      7.688803277800003     13.448951058499988     11.652773063299998
Si      1.085875181699998      2.109983181499991     11.956497252100000
O       5.230804205599989     13.011365903999993     14.103475898999983
O       7.864851897699999     13.570444617999994     13.267003438100003
O       6.876794910400014     11.113001147899991      7.265669422899998
Si      8.095654962100003      0.048238461099997     14.209067106200001
O       1.193504967799997      2.204667837999993     13.566422234700003
O       1.022430979699998     11.192727292599992     12.033142751800005
O       6.217832359100007     10.446339601399989     14.350949516999995
O       1.923979630399998     10.620372457299993      7.185878281700000
O       2.599005147599994     13.823024151499988     14.524471396299990
Si      1.535566743500001     14.673211831499984      7.247042326000000
O       8.019520965600007      1.290289166499996      8.909731276899997
O      13.396029212999998     11.113722143499993     11.375318877800009
Si     11.776555437899997     11.333652308299987      8.201419743999999
O      12.560756032599997     14.812928986299996      7.347682416700001
O      13.371192296399997     14.164737669699994     13.019754955799996
O       8.519690123699998     12.198627643499989     11.048920913899998
Si     12.231241433900014     10.869860440599989     12.456226779899996
O      10.829327855699997     11.110555733999993     11.713555291099999
O      10.173855928500007      1.377663841299999     10.228464365599997
Si      9.810234243299995     11.369448869399990     10.501311931300013
Si     13.808460865899992     14.637852985599991     11.547085706400008
Si      8.274937608700005      0.433683176500008      7.551871890199997
Si     13.148368995500000     13.138392554100003     14.232039106699995
Si      8.598986952000004      1.329369962099994     10.407894023100013
O       0.598757478900001     11.260593621599989      9.492283829500007
O      11.568633482100001      2.371507784599996      7.511708233999996
O      12.564723606100008      0.640101661999996     10.889426609399997
O      12.979477708199990     12.412025100899992      8.179332578700006
Si     10.527209735599985      1.928641126599995     14.013529794900005
O       0.128213172599997      0.889213213099993     11.633367135500016
O      10.588318420799997     11.918523963999993      9.166419417000007
O       9.585262034900001      0.623218983699992     13.942061402299993
Si     11.493713727799989      1.865063217300003     10.983964681600007
O      14.462766830199991     13.338098163299993     10.809818239700007
O       8.373866762999995     14.740179484100002     11.062886030100008
Si     14.805098572500000     11.746080701699993     10.914373608799998
O      12.235945000499997     11.927168966300000     13.689466206899999
O      11.168923724499994      2.209055321099997     12.541474968200010
Si      6.885891939500003      7.227539769400006      4.381081845700003
Si      3.829054813100004      7.840345372200010      4.891138503900007
Si      7.086492533400012      4.844009454599994      2.475414239699994
O       5.336932778800001      7.634585948299998      4.369916626000004
Si      2.898670811499998      5.409161086800006      6.320488810600001
O       7.207789317000020      5.754803656299992      3.805766267600004
O       6.141302286100000      5.667411443100002      1.498714849900002
O       2.855979042500000      7.561809948099995      3.634951382799995
O       2.183310367300002      5.007114683600000      4.960533940399999
Si      2.783662921900001      7.852354070099998      2.050205173599998
O       3.592956484000010      6.821802542299999      6.110121279999994
O       3.837898224300013      6.904547669000007      1.247754860499994
Si      2.218313870799997      3.990947081900004      3.733436652200004
O       3.513707504900009      9.290676578099998      5.469883319599994
O       7.531251625499997      7.237355773099996      5.843258396300009
Si      5.353141715200000      6.764555967499996      0.652928327599987
O       3.329453714100002      9.306504722999994      1.669561474300002
O       6.374445741699999      3.452802652900002      2.819782977599997
O       6.283399952200008      8.119781739399993      0.676447723800005
O       7.683182096900004      8.362969434900005      3.572974757499992
O       7.793286100300002      3.774310894999997      6.365948560299995
O       1.346626314499998      4.774314240100000      2.622255039899994
O       1.217269878400002      7.897431856600000      1.657604179599995
O       3.773314263500004      3.690589078300005      3.401982636899989
Si      7.223550791600000      9.231717390399993     14.744193331200002
O       1.764865175199994      5.492788365200004      7.440137890299996
O       3.913925110600010      4.259317398599998      6.769691711099996
O       8.515664180199998      4.508755355099999      1.822708599599996
O       8.603495347100004      9.779964722899996      0.674859372999993
O      10.571607529200012      8.315991928100004      0.017823641099996
O       0.208245389399993      3.600979662400001      0.752118354199997
O      11.970618192300016      6.653684131099999      6.086640805899990
Si      9.194731048300003      8.825386764699997      3.894216726799994
Si     14.732795439999993      4.751934243299998      1.872864776699993
O      14.219311592799993      6.239528996400002      1.422769784300000
Si     14.440130911800001      7.862740095099993      1.494446340499993
O      13.635861078899993      8.868523154199998      2.547546226200000
O      11.097569046699988      4.112088510399997      1.745609224799986
O      11.218785156299997      5.595073331800003      3.886072721499993
O      13.481892087999999      4.344301753400008      2.819295650499999
Si     11.886562000299994      4.334626574300004      3.127804148099990
Si     10.664469453099994      6.369197366300008      5.208876393499996
O       9.944263523699991      7.789877757200001      4.887310571900000
Si      9.793153224999994      4.380547682899997      0.854658370199997
Si     10.153867006300008      9.354446011899993      1.146039728899995
O      10.012624820799999      8.616719787799997      2.549169904999991
O       9.697945367899994      5.434631008500003      6.107492586500006
O       0.370774716799999      3.350809664499995      6.436070707100002
O       9.936104525999990      5.775659897300003      0.080096828599992
O      11.495331279600000     10.286120295199991      1.498942879099990
Si      8.726220623600000      4.771251598000000      7.216980169799997
O      13.868111210000002      8.457420889100000      0.114513576600004
Si     12.815586526999986     10.319211437499993      2.533142263799986
O      11.743434174599994      3.032041050899996      4.049225965699995
O      14.117180901699992      5.591946881200001      7.024049188099995
O       9.682330961500003      3.192388655299994     14.589387670699999
O       5.637217644600007      2.781275556699996      5.204458068000005
Si      2.818326746300004     10.520976537899996      0.774975425599989
Si      6.641817656900010      2.663173430199993      6.454290557300003
Si      5.149212332999989      2.851203498799998      3.668147705599990
Si      3.391529639099990     10.483123707299997      6.531756967000008
O       1.445368501000001      2.627354169999998      4.132666419400001
O       2.913171119100000     13.909714780999996      6.866337481000000
Si      5.555704832900013     11.741854729999991      0.219696755399997
O       3.670849617299994     11.773524013399987      5.621007290100004
O       6.634801324199997     12.092772339400002      1.330186816099991
O       4.890857768599997      1.382412379899996      3.141203780699994
O       4.076826563000009     14.150070344399994      4.541897601600004
Si      4.672511129200003     14.640612221899998      3.136450203999994
Si      2.214818848299998     14.477326014500006      1.148723594399995
O       6.133133226900005     13.995476951899979      2.901886626199994
Si      7.323683741700006     13.354958075499992      2.028564123300001
O       3.578067711399997     14.318217914099995      1.997789807799984
Si      4.057838086300010     13.309354746599984      5.899100719400001
O       1.782443253200001      1.216531974599995      1.013752791600000
O       4.081296884600001     11.505799640199998      0.830836337199996
O       1.512695916899997     11.181602983199985      1.414457412099990
O       7.370463376900004      1.213036684999992      6.449258408200007
O       5.551529349000006     13.317319862799993      6.521997610600000
Si      7.011575354000004     12.645635336299994      6.722212013800005
O       7.875621421000003     12.502037181699993      5.367313093100001
O       7.869086733600011     14.405612767099990      0.913887113900005
O       1.286050250899997      0.965208785399987      6.122386071300011
O       0.955107602599998     13.645122324299992      1.812332120499994
O       0.197132586000009     13.743779383699986      7.188726838400000
Si      0.285704403899993     12.213337006799994      1.353203371800003
Si     12.719044247299989      0.723069699100002      1.062097709799994
Si     13.432033996400003     13.481325389999993      7.056110695999998
O       9.850395699099995      0.396504908799994      7.181213124700002
Si      0.524286197799998      2.151139387799986      5.372756812199996
O      14.140511941999986      1.213353920699998      0.500617442300009
O      12.559757130400005      0.895680104199997      2.666874633599987
O       8.531037209899988     12.745796750199993      2.914325708299988
O      13.945399262799988      1.643085426700001      4.789111021099989
O       9.100715934700002     10.389112280399990      4.294650534799994
O      11.491241680599998      0.876836888899994      5.210017135800000
Si      0.629945987499991      2.098354712299998      0.253759393800002
O      13.878056296699995     11.515403882699990      2.153790324899994
O      11.395410351400002     11.089921204699991      6.630350161299995
O      12.556560340699995     13.983272802099988      0.659807176499999
O      11.658613539499999      1.625003697600000      0.269080404499991
Si     11.341762106499996      0.916147767999995      6.824400710199989
O      10.499038174299994     12.505069252800000      4.630915459600003
O      14.556308130500003     12.495015867400003     14.688217795899993
Si      8.986189724499997     12.023514020599993      4.301001976700006
Si     11.827778052599990     11.758563446799993      5.197056305799998
O      12.316478930499999     10.694757336099993      4.054131215299997
Si     12.459666405600002      1.589476379799999      4.137830865600000
O      12.984414550600002     12.835973394900003      5.612708612999993
