216
14.747 14.747 14.747
 Si         4.6297217395        2.3839416805        2.3282509238
  O         4.5104780270        6.5671065024        2.2130591528
  O         4.8227405917        3.9530467280        1.9720755508
 Si         1.0636415475        4.6836968693        1.3530509211
  O         2.3918030243        5.0000041106        2.1975698501
 Si         3.9432918148        5.1320905430        2.6389028623
  O         3.9332693130        2.3106106602        3.7570947251
 Si         3.6642611345        2.1308370305        5.3095639213
 Si         3.9746684045        5.0166719211        5.8199324226
  O         4.1779209723        5.0850342005        4.2321994504
  O         3.5352323820        1.8025668016        1.3292260590
  O         5.2608159032        5.3170551915        6.7212579898
  O         6.0672368908        1.6376319806        2.3067109557
  O         3.5161616956        3.5090539998        6.1333264464
  O         4.9292967827        1.3115394712        5.8319730038
  O         2.9352571498        6.1541865397        6.2193889589
 Si         1.3862139709        6.4889442786        6.4228883149
  O         2.3052262218        1.3233230511        5.4810318615
  O         0.4033689140        3.3409027478        1.9487416477
 Si         6.8583956984        5.3741072015        6.8790998869
 Si         6.0313276399        0.8917941388        6.9041998199
  O         0.6545681454        5.0755089057        6.2229646496
 Si         1.6276007505        0.3176804333        6.5172088098
  O         1.1196486313        1.3146728333        0.4212576155
 Si         7.1790692467        1.5435033399        1.1357790825
  O         6.2827046050        7.1956551924        4.1977599692
 Si         2.6734360800        1.4749260736        0.0325346406
  O         7.4625605203        5.1921549431        5.3892549017
  O        14.7479445747        5.8850369101        1.4625936102
 Si        14.6511773842        1.9724944731        1.2463722698
  O         7.4555260664        0.8261907030        6.1532715227
 Si         7.6487590123        6.3610341235        4.2862205169
  O        14.1533636540        1.0504384291        2.4658530865
  O         7.9315984688        5.8127804469        2.8013075484
  O        11.0641921894        4.8292190397        5.9814552625
 Si         8.8054122194        5.8395966195        1.4430361338
 Si         9.6761556981        3.0785043345        1.6196123380
  O         9.9112546410        4.6790946278        1.7279844148
  O         9.6630703139        2.2109966126        2.9609034598
 Si        10.6427997298        1.3824288880        3.9176349037
  O        11.4578114681        2.5341232341        4.6682225936
  O        12.3034446861        4.9314289415        3.6746488608
 Si        12.0223157594        3.9845013132        4.9610562205
 Si        12.3849999592        6.5101409654        3.2807741021
  O        13.4139817884        3.6192156249        5.6672848615
  O         8.1919984085        2.7906052477        1.0605230594
  O        12.3831494997        6.7900017767        1.7009588785
 Si        13.3368181521        6.0146728695        0.6741968104
  O         9.7525509342        0.4922807977        4.9122250953
 Si         8.9949157962        0.3708147115        6.3179685989
  O        10.9052366622        2.5384991152        0.7450295834
  O        11.6385257902        0.4137905146        3.1149021470
  O        12.6240565425        4.5987183135        0.4067906938
 Si        14.0711698014        4.4552430212        6.8577886399
  O        13.4485478676        2.1964918257        0.1774430749
 Si        11.5215766931        5.9891290128        7.0364123474
  O         8.1143303688        5.3260747796        0.0853307497
  O         8.1218181765        0.2314566103        1.1559469277
  O        13.1140771438        5.7317302827        7.2116847098
  O        11.0572697713        7.3879039888        6.3794761596
  O         8.7782615878        7.3004037682        4.9155015125
  O        11.0526541125        7.2085389365        3.7720841742
  O         9.2518041985        7.3799163923        1.2388162960
  O         0.9040083314        7.6985693211        5.4881264159
 Si         5.1639953644        7.6970879606        3.1644571514
  O         0.7299300793       14.0909170706        5.6462843028
  O         3.5977757691        8.8504596966        6.7261727758
 Si         1.5073861161       11.3893274181        0.5351857582
 Si         6.0546322433        9.5038582876        0.7918405283
  O         5.8866314380        8.6957827061        2.1554698321
  O         4.0239446493        8.3484005771        4.0962042318
  O         4.5907227547       13.3670716991        1.3792233715
  O         5.4044883960       12.1138906345        3.5271235170
  O         5.2239084448       10.3341835129        5.4036666617
 Si         5.6579912931       12.3029340921        1.9742367903
 Si         1.5918165524       10.6804377403        3.5109857301
  O         2.6976251827       10.4063022986        4.6638705811
  O         5.4930059382       10.9834288601        1.0667027817
 Si         5.4952811487       11.8982061761        5.1041459323
 Si         3.8706121194        9.4605393468        5.2539701186
  O         4.3376476029       12.8511676376        5.6974108796
  O         2.0489121442       10.8892384893        1.9757707718
  O         0.9762545524       12.1255378894        3.8502567224
  O         0.5708153394        9.4146872026        3.5246661430
  O         7.2071313849       12.7048543836        1.8861384195
  O         6.8781004671       12.2894678126        5.8156077164
  O         2.7890854772       14.2630640114        7.2954255298
 Si         4.1559097032       13.4306188543        7.1857947690
 Si        -0.0030822225       12.9692613053        4.7963340717
  O         2.6394609664       12.3745343275       -0.0853184454
  O        13.6879058370        7.2066779290        3.9259526303
 Si         8.2329349117       13.3794536997        0.8583890603
 Si        10.6238679528       11.3857563833        1.4890704240
  O        12.9580908968       13.8446074047        1.2932064050
 Si        13.1945727294       10.7115933420        6.1030078080
  O         8.9355210115       13.6214730887        6.8730107287
  O         9.2545398016       11.7199595840        5.1560980470
  O        13.6018839688       13.6071326094        3.8575512054
  O        14.1946649007       11.9333426900        5.8840262059
 Si        10.2812204572        7.8296421766        5.0188138918
  O        12.0533548046       11.5423524114        0.7382033932
 Si         9.1009511731        8.7886779950        0.4406957183
  O         7.6130800754        9.4164273261        0.4147178744
 Si        13.2291119023       12.5893644668        0.3235407994
  O        10.2433690862        9.4027361328        4.8327696703
 Si        10.5451528197       10.9537124849        4.6306419469
  O        10.8192849459       11.3825413900        3.1010888338
 Si         8.3730411266       12.1957659499        6.4000596220
 Si        13.0914253930       14.6019699364        2.7001582748
  O         9.6574743838       12.6362160831        1.0621418542
  O        10.0158200399        9.9490906102        1.0723282683
  O        14.7503448101       12.0377915922        0.5726662876
 Si        14.5546611215        8.4077881345        4.5400929890
  O        13.5152633910        9.3461483261        5.3207913724
  O        11.7936958596       11.2989475003        5.5825080768
  O         3.6279039326        2.9457856036       10.2434558401
 Si         4.9923464184        3.4648140434       10.9194230881
  O         2.2136493099        4.8969638307        9.3321990313
 Si         2.1483527195        3.6017747315       10.3076268053
  O         4.7433788538        4.9882659199       11.3786846321
  O         5.3162843100        2.4504460888       12.1304241767
  O         1.7942029273        4.0849172565       11.8180896475
 Si         2.3047436118        4.1160872307       13.3503320086
  O         1.0963519844        2.4757365190        9.8317368367
  O         6.2980880856        3.5962379647       10.0125216727
 Si         4.6867386496        5.8173453251       12.7513050741
  O         5.8950016649        5.3188113494       13.6802557456
  O         3.3560299861        5.3305824956       13.5178722461
 Si         2.0812171139        6.4942940770        9.2020777567
 Si         6.5430997274        1.9335822260       13.0236833031
  O         2.8701376010        2.6343321384       13.6791165081
 Si         7.1215599537        2.9900986099        8.7977667302
  O         1.1415719906        6.8857466048        7.9565741659
  O         6.8768774996        0.3945474133       12.5286698159
  O         6.1356145846        1.9484572292        8.0977717137
  O         6.2229276846        1.6394876249       14.5790957710
  O         1.3844356249        6.9656882193       10.5615415562
  O         1.2252401513        4.4260929934       14.5028122523
  O         0.7395647098        1.1510187675        7.5476847694
  O         7.2111976413        6.8033605614        7.5408988611
 Si         0.0436813412        2.0310915551        8.6867868488
  O         7.0335126491        7.1278239981       10.1519109208
  O         7.4601570248        4.1746267268        7.7671186228
  O         3.1982402416        0.0757580975       14.2483730301
 Si         7.4183714778        4.8472293295       13.4719469732
  O        14.2528756791        3.4494833398        8.1029773222
  O         7.5374442032        3.2613420725       13.0420258956
  O         8.0231012739        5.7410623208       12.2846511990
  O        10.4819422955        3.5078958231        8.5940508460
  O        13.6078162290        1.0678980396        9.2531743987
  O         8.8686573541        5.3244679642        9.9049450664
  O         8.4355340608        2.2104578727        9.3418753659
 Si        10.3377131116        4.8334930818        9.4929222198
 Si        12.1776372249        3.8184876102       11.8148580469
  O        11.0607081111        4.5106452448       10.8937663930
  O        12.8553606467        2.5845283979       11.0598612214
 Si        12.4645302653        1.1609655097       10.3950227212
  O        11.6224236663        3.1966227805       13.1849236144
  O        13.1832170717        5.0032865939       12.2091785540
  O        10.9076239923        5.9784330945        8.5218139986
 Si        12.9190971488        6.5604276797       12.5672147854
 Si         8.3048630240        6.4707783890       10.8930196188
  O        13.5294909369        6.8042102758       14.0366376500
  O        10.9714125139        1.2273598029        9.7526576716
 Si         9.9430731917        2.0001297475        8.7787902599
  O         9.8342117917        1.2399251117        7.3766082147
  O        11.3884794390        7.0460570552       12.6118743599
 Si        12.1632742858        3.1340524644       14.6946196357
  O        13.6087054714        7.3768172180       11.3944255794
  O         4.7507293366        7.3760283402       12.3717095563
  O         3.4497903800        7.3022872136        8.9328239577
  O         5.5779141107        8.6811432846        8.5205100349
  O         5.0825140641       13.2778260581       13.5999229250
 Si         3.9750326794        8.7010842467        8.3047383453
 Si         6.5713057019       13.5880287619       13.0151535655
  O         4.5906098957       11.6325561546       10.6488885217
  O         3.3464070979        9.5843224350       12.5333752501
  O         3.2775756014        9.9405917317        9.1097785842
  O         1.3885495749       11.2986445813       12.0387364679
  O         5.8927596921        9.8321143205       11.9666621618
 Si         0.7891640304       12.0490029549       10.7495235575
  O         2.1464636161       12.3561551321        9.9077848178
 Si         3.4840186064       11.5196964198        9.4910560271
 Si         4.7993423787        8.9401377426       12.7793659350
 Si         1.7950935107        9.9303866781       12.7707513536
 Si         6.0770557224       11.2143335160       11.1090600716
  O         6.7239493136       12.4728377420       11.8738776120
  O         4.0964501013       12.1989409548        8.1869459962
  O         0.8153953022        8.8479932302       12.1308619651
  O         1.4739707269       10.0808279640       14.3350116579
  O         5.1649801729        8.9293104681       14.3416009056
 Si         6.9827608976        7.8953387204        8.7163499675
  O         7.1144796893       10.9673904424        9.9119136917
 Si         0.2314444514        8.0203690597       10.8990669642
 Si         3.8686684681       13.4306337079       14.6624816657
  O         5.4927044677       14.2633544292        7.5442228215
  O        14.5799430705        8.8407246352        9.5774469418
  O         8.2031538903        8.9608426921        8.6990767448
 Si        13.6864028375       10.1139612559        9.1636584565
  O         9.7523121529       10.8941446968        9.9907607615
  O         9.4907210742        8.4407541937       13.6832186531
  O        13.3519884477       10.3069976757        7.6278596542
  O        14.5884989257       11.3200309332        9.6812267004
 Si         8.4316127407       10.5206028948        9.1055000463
  O        14.4947981575       13.1174060408       11.3776341596
  O         7.7056536294       13.1925629088       14.0970072618
  O         8.5164465672       11.2903215640        7.7014058122
 Si        11.1599997200       10.7429669619       10.7958685725
  O        13.0270474903       13.0272059534       13.5249806452
 Si        12.9556272221       13.2079381964       11.9206368453
  O        10.9055789098        9.6653969165       11.9692871816
  O         9.3455024570        7.6870819331       11.1527552596
 Si        10.3067416709        8.2165496576       12.3371992139
  O        12.4585666955       14.6802231926       11.4483639276
  O        11.8704252889       12.1059126489       11.3688731295
  O        12.2413118192       10.0638396164        9.8368913021
