216
14.92 14.92 14.92
  O         5.3005680023        3.2374482037        5.4810428982
 Si         3.6608402779        3.2827289402        5.3408265662
  O         3.0735713881        3.7341769980        3.9114547978
 Si         2.0274780013        3.1128403451        2.8258885558
  O         1.1637213335        1.8127160424        3.3067599588
  O         4.1422397356        6.2872907611        1.8863909704
  O         1.0014958527        4.3176399078        2.4835441435
  O         2.8898758433        2.7475766562        1.5073282952
  O         5.2106389495        6.2840914752        4.3224462441
  O         2.9886370333        1.8301381944        5.4703679351
  O         6.6287258829        5.3805904535        6.2932293844
 Si         0.6432701956        5.0486166520        1.0971322762
 Si         6.7020301996        6.2196903077        4.9353445662
 Si         6.2187053889        3.8762747821        6.6875283375
  O         5.3937563582        2.3129470792        0.9162730497
  O         3.1477840110        4.1505890569        6.6068214027
 Si         7.0003965186        2.3091026414        0.9818340519
 Si         4.0288478952        2.9772117845        0.3896089457
 Si         3.5264157656        5.9494312189        0.4417554550
  O         1.9302813257        5.7939111772        0.5089704631
 Si         3.4720326770        0.4066006385        5.9595473992
 Si         4.7275432259        7.1663118419        3.0759077000
  O         4.2155403974        4.5516813214        0.0076622415
  O         4.2190505234        0.6580842261        7.3672461904
  O         0.1662574094        0.9051579312        5.6465129375
  O         0.1678802406        3.9173934062        0.0906683103
  O         7.3758100863        3.5676802262        1.9089114886
  O         7.6979028491        0.9861747305        1.5822768044
  O         7.6067071017        3.1479819175        7.0393029791
  O         7.6148843827        5.4871683785        3.8201228970
 Si        14.7610409579        1.6133904021        4.2465897067
 Si         9.5169828464        6.3184125471        0.2132840197
  O        14.4130649367        6.1441947110        1.2375164025
  O        14.3404287852        3.1351071635        4.4578633967
  O         8.7884284166        5.6443967055        1.4717139349
  O        12.6815542470        3.6431862925        6.2217137061
 Si         8.3035622079        4.6565502337        2.6381261904
  O        14.0209796514        5.6545958517        4.8909654982
  O         9.5422596439        3.8956302676        3.3146333479
 Si        13.2745530528        4.2359099481        4.8623348778
 Si        11.0417682562        3.4413713292        3.0196369580
  O        11.2013468975        1.8914338845        3.4002395293
  O        12.0738574298        4.3797670671        3.8088010384
  O        11.4265897295        3.5611339901        1.4769354060
  O        13.5260750598        0.7392299459        3.6438259289
 Si        12.0479712508        0.5886824920        2.9886914624
  O        12.3515737555        0.4185927114        1.4077639334
 Si        13.7559532567        7.2180864323        4.6086547897
  O        10.1867504288        3.6509538262        7.0529260565
 Si        13.6167394131        0.0999455754        0.4426622577
  O         4.5728466024       14.7443472178        4.9838783416
  O         6.5358768899       14.6695926702        3.4920290807
  O         2.2252364873       14.3351715925        6.0541668397
 Si         5.0645022508       12.7615618823        0.6580280503
  O         6.0426948203        7.9476018468        2.5740501939
  O         3.5654498166        8.1323487663        3.5662499924
  O         5.5381421453       12.4279982266        4.5516914929
 Si         1.2100717691        9.8392801516        1.1269652599
  O         1.9155824684        9.2809703833        5.2198350000
 Si         2.6989232769        9.4374739196        3.8462718930
  O         6.1281130379       10.5195073514        3.0658706838
 Si         4.9214720441       11.4925379520        3.4170530344
  O         4.4735758102       12.2678899505        2.0772521088
  O         3.6540023681       10.7095015856        3.9813074193
  O         1.6558003098        9.6211448975        2.6509507289
 Si         5.9459008419       13.9559306177        4.7803020377
  O         6.2919633593       13.7873014933        1.0133905340
 Si         0.5254945121        9.3576483973        6.0014536010
 Si         6.9512220074        9.2721766350        2.5203514055
 Si         0.6447713571       14.4611396999        6.3615005275
  O         0.6580229900       11.3695238630        1.0082587521
  O         7.1203476826        9.5300328075        0.9266693148
  O         7.0393361217       13.9313715755        5.9654070396
  O         0.0153900110        8.7824589649        0.8367036580
 Si         7.3032057262       14.4470913436        2.1142993984
  O         7.1992447016        7.6899513316        5.3853139398
  O         0.9200100525        9.3665815136        7.5695442620
  O         2.4811460723        9.5287655954        0.1652918088
 Si         7.2499977686       13.5055652073        7.5063752314
 Si         9.0509673668       10.9583652169        7.3913186591
  O        12.5226024681        7.8808986532        0.9156843069
  O        10.3629166263       11.7024252890        6.7979643299
  O        14.8404217150       13.1890299784        5.7225378257
  O        10.0444327554       12.0304921591        4.3004894177
  O         8.6101480167       13.6045919498        2.5672983097
 Si        11.1091476912       11.4506279823        5.3893473580
  O        11.1143802317       14.2610700349        3.4109156865
  O         8.2136799202        9.1285029252        3.5603046482
 Si        13.9870913323        7.6662265732        1.5314889687
  O        11.4327027339        9.8582543761        5.3949265494
  O        12.5212020169       12.1817927654        5.1352628912
 Si        11.2624790707        8.6020855378        0.2193707535
  O        14.5915076269       13.9181176965        1.1625448576
 Si        14.4622087435       12.3615471464        1.6752804966
  O        11.1873390955       10.1245853716        0.6609464538
  O         8.4591228397        9.9463000463        6.2328882184
  O        13.0282699864       11.8562384789        1.1560647605
  O        14.5844086236        8.0353022836        5.7160593980
 Si        11.2869515423        8.2924424841        5.8000981877
 Si         8.4126553839        8.7186160463        5.1474033581
  O        10.5408934890       12.2649331818        1.8048596056
  O        14.5924297076       10.6184123522        5.4683768509
  O        14.0959780138        7.7917076917        3.1418674076
 Si        14.1186566336       12.0466986010        4.8785451744
 Si        10.0542514698       13.0847687011        3.0613106101
  O        14.4971313312       12.2575622891        3.3047615042
  O         9.9470478727        7.7940133668        0.6646432262
  O        11.7748512350        7.8711045609        7.3014443495
  O         9.7649504464        7.8841919817        5.4644097987
  O        12.1847717048        7.4502858539        4.7956187004
 Si        11.5019106596       11.6817447997        0.7038059098
  O         3.0682130145        3.2272679531        9.1204707093
 Si         3.6667767687        1.4378010672       12.6044728368
  O         5.2178087239        1.4008260017       12.0988036306
 Si         2.0319603626        2.6490931480       10.1817122869
  O         2.7422009004        2.1555719202       11.5208025675
  O         1.2241902534        1.4724057152        9.4523044672
  O         1.0043679599        3.8166744274       10.5894948488
  O         3.5599081489        2.2244119732       13.9829009310
 Si         3.7469014965        4.2431229353        8.1094717969
  O         3.5665500030        5.7289919155        8.6197876863
  O         6.8811417376        6.3873917523       11.7762258030
 Si         3.8307599651        7.1064930733        9.3576713384
  O         5.3189551053        3.8888357267        8.0255419792
 Si         5.7278102627        0.4476580100       10.9054034861
  O         7.0388481781        1.0042088355       10.1875529559
 Si         0.1838997059        0.2503128006        9.3902738363
  O         4.4919211934        0.3360500061        9.8658673598
  O         3.7242961757        7.1767916809       14.3469250309
  O         2.9182989929        7.1191805919       10.6876876329
  O         5.3679684075        7.2965594968        9.7777359301
  O         7.5571292357        2.3314938692       14.3989443217
  O        14.6693665326        2.9851593407       12.6895561230
  O         7.9680247116        7.1139378355        9.5230777886
 Si        14.5141390287        3.8583248958       11.3418844228
 Si        14.1446650322        2.9297972401       14.2058193238
  O        14.0888681128        5.3931391462       11.4409096928
  O         8.0235980872        4.1124780235       12.6763510724
 Si         8.1895437616        5.6838198590       12.4329374837
  O         8.5429734637        6.3810683969       13.8435236259
  O         9.0355873766        2.0757742554        8.8774815154
  O        13.3515581009        3.1632749391       10.5193939556
  O         9.3626324665        5.8142642820       11.3243252071
 Si         9.1898059381        6.0804278065        9.7319241375
  O         9.1134823425        1.7461692952       12.2684459893
 Si         8.6794940062        2.8234934202       13.3722953682
 Si        12.5628482790        1.9493289316        9.8750845700
  O        11.9391686881        2.5705308079        8.5302944534
  O        11.4497400394        1.4952457430       10.9418441925
  O         8.7947847304        4.7154201650        8.9501370122
  O        10.5404400238        6.7927475778        9.2762876755
  O        13.5773292529        0.7487102714        9.5351588012
 Si        10.2063782552        0.7494330082       11.6318789685
 Si        11.9553543665        6.7817001834        8.5131888966
 Si         8.4184792870        0.6903412579        9.4096322705
 Si        13.9188502920        6.9107883231       10.9536913580
 Si         8.8891322685        3.4108983061        7.9879488378
  O        13.2610580168        7.1164519613        9.4523008665
  O        12.6214172159        3.4760860307       14.1629390402
  O        10.0277721327        3.1470501605       14.1834513538
  O        12.1097594297        5.2453087260        8.0465901678
  O         9.4426652525       -0.0077487459       10.4378068051
  O        14.3307535498        1.4843562557       14.9209147576
 Si        11.7371708363        3.7807333596        7.4911903310
 Si        11.2519630430        3.9266941373       14.8556194413
  O        10.8605407893        5.4864725449       14.7467751783
 Si         6.7633664910        7.4458385279       10.5377333565
  O         0.4125454362        7.6286922463       11.2709846139
  O         3.1557570147       14.8403345390       12.7640430509
  O         5.8041785700       13.6038898957        8.2111474693
  O         4.9090508210        9.3626423027       14.0806034621
  O         3.3160550254        8.2741521928        8.3599878237
 Si         1.9019897456        8.2401053104       11.2306044484
 Si         4.4639075246       14.4639772036        8.4760101549
  O         2.9653157629       10.8473330782        8.2154353853
  O         5.9722988436       13.8480856527       11.3611796034
  O         2.5685489608        8.7905225460       12.6084883831
 Si         0.8669687347       12.7347272991       11.2341937952
  O         1.8166850310        9.3914693630       10.0980232704
 Si         3.4139457659        8.7288093334       14.0072356371
 Si         5.3157848864       12.3786185234       11.3425508243
  O         4.1380930944       12.3500771948       12.4327936795
  O         4.6236205969       11.8744489071        9.9772019543
 Si         3.1951530775       12.0439174152        9.2502165774
  O         1.9906144931       12.0988396734       10.2888307850
 Si         3.1034970841       13.3041070748       13.2212501123
  O         1.5744536286       12.8434114096       12.7434806542
  O         6.5473435637       11.4370722501       11.6036708855
 Si         2.2236355554        9.4508311121        8.5285057081
  O         3.2347275291       13.4358546259        8.4553700484
 Si         6.3132300155       10.0789676427       14.5366107482
  O         0.5004204292       14.1807355764       10.6180667835
  O         6.9723095127        8.9560356279       11.0307850355
  O         7.4620335705        9.9441554910       13.4066401445
  O         0.3336620633       14.4930659995        7.9391288895
  O         3.7333853996       13.2603846896       14.7476789162
  O         5.8157510101       11.5977409710       14.7632557898
 Si        12.8513382482       11.5661593764       11.3206539488
  O         9.6059559644       10.2759937486        8.7775146062
  O        10.8694413815        9.0137887435       10.9260777486
 Si         7.5599461372       10.2334133814       11.8159491371
  O        11.5958357985       11.3498673974       10.2622342429
  O        12.8418470795       10.1987254202       12.1877149177
  O        14.4323858279       11.8377312605       11.0277692794
 Si        11.8038708779       13.6372539558       13.2987434355
  O        11.1958551518       12.5011048886       14.2637324877
  O        12.4315987658       12.9299415797       12.0249127156
  O         9.0235174330       10.6959038594       11.2792008661
  O         7.8765035117       12.0270263584        7.7038633902
 Si        11.9408215378        8.8452427515       12.1302768094
  O        10.6883319998       14.6682704193       12.7860297181
  O        13.0097830026       14.4163723358       14.0102007907
  O         8.2080814423       14.5876674788        8.1984444695
  O        12.8438217289        7.5521452373       11.9383031606
  O        11.2489688417        8.6105400574       13.5390311380
 Si        10.2642544370       10.3715864411       10.2637539417
