216
14.814 14.814 14.814
 Si         4.4964946813        2.2239042419        1.8170153642
 Si         1.8875290667        3.5315164163        2.0268128540
  O         5.3510419686        2.2313856549        3.2068856245
  O         3.4623688159        3.4522722055        1.6510712043
  O         1.6461531463        4.8646134914        2.8854882670
  O         1.7204140088        2.2206154406        2.9582121546
 Si         1.6996204642        6.2242789471        3.7615922681
  O         3.7016592739        0.8219872417        1.7285447784
 Si         1.1784429320        0.9488231664        3.7828313060
  O         1.0681318211        1.4771042343        5.3019879134
  O         0.9011727131        6.0004878996        5.1778172109
  O         0.9809454809        3.5417309641        0.6580027963
  O         5.5264983939        2.3773482890        0.5923860145
 Si         1.2212937572        0.9429015196        6.8134639699
 Si         6.8931980462        1.8711451963        3.5858257652
  O         3.2354100167        6.6753412461        4.0968753518
  O         7.0863291064        1.7266077862        5.1828712822
  O         5.9992456759        7.2378040425        3.7996019716
  O         7.2532352215        0.4680080938        2.8739152623
  O         0.9055612629        7.3274737335        2.8834855889
  O         4.2731742950        6.8388619850        0.0974948654
  O         7.6492592635        3.9504670524        0.6483101199
  O         7.5071883113        5.6001821684        2.7022376614
  O        14.6653337981        0.5022936438        2.9698714948
 Si         7.5403093007        7.0893845571        3.3082259707
  O         7.8916345816        3.0179393072        3.0606396190
  O        14.1444190790        1.5520487071        0.5122290750
  O         8.7075397610        5.4025813040        6.1793234493
 Si         8.2056132789        4.2798624561        2.1184274672
 Si         8.2364021025        1.7592953622        6.3246646442
 Si        11.0813560483        1.4744390185        5.1128611523
 Si        14.2012108608        5.5555294418        5.5713798932
  O        13.8324087179        4.2080764124        4.7886751948
  O         9.7762652273        4.5293389616        2.0614105189
 Si        11.1199581299        5.3003830095        1.6731327156
  O        12.1817020848        4.8585620232        2.7963587150
 Si        12.8298993715        3.6848907896        3.6638751938
  O        13.7491633716        2.8860849060        2.6316541179
  O        11.7624828451        2.7148277843        4.3537690429
 Si        13.7248423230        1.4043808430        2.0365805383
  O         9.7151989348        1.9771233417        5.7542381186
  O        12.1052274388        0.9822922252        6.2828117504
  O        13.1654329640        6.6727628302        5.0238613936
 Si         9.2740438344        6.9004336661        5.9100854670
  O        11.0189014031        6.9017016855        1.8124953344
  O        10.6260747017        0.3313701868        4.0274684337
  O        13.8920878345        5.3429580407        7.1505061057
  O        12.2513374123        0.8279513597        2.0582524213
  O         8.7180840086        7.2447218861        4.4249525006
  O         7.9893792287        3.0493459841        7.2447613253
  O         8.2334129279        0.3732975887        7.1490557012
  O        10.8915741329        7.0883503921        6.1708632658
  O        11.4420436186        4.8544498686        0.1601022043
  O        14.5600758946        0.9100179012        7.4051371726
 Si         4.4515297304        7.7355802467        3.7932694578
  O         1.9756264091       14.3912436313        3.9438585002
  O         4.1172079787        8.3050496954        2.3156942945
 Si         4.4990604391        8.2890607984        0.7557989005
 Si         3.9520538941       14.0992869457        1.3031051769
  O         4.4397672404        8.8785774111        4.9217681148
 Si         4.9848862742        9.7746445371        6.1358607864
  O         5.5161167217       13.8261656525        1.5627735734
  O         2.0444868785       11.5879632116        4.1098101967
  O         3.2067947266       13.0080775260        2.2329017515
 Si         5.4742685856       12.7561351647        5.2924051861
 Si         2.7659097033       13.0050153466        3.7968126625
  O         3.9754148175       13.1639600477        4.8564810917
 Si         0.6535321637       10.7377451906        4.1667530420
 Si         6.7412035419       13.7755781095        2.6141519578
  O         6.4169989459       13.0926444142        4.0353418397
  O         5.5134922189       11.1851201939        5.5897993675
  O         6.0073336735       13.5065020068        6.6327169867
  O         5.9963769672        8.8093195767        0.5707044398
  O         0.4922192614        9.7127405325        5.4306916361
  O         6.2500181654        9.1353748393        6.9144003814
  O         3.7098778654        9.9518348066        7.0890577146
  O         0.4180880465        9.8790625801        2.8009497832
  O         0.3293829341        8.3156661900        0.5111171949
 Si         0.0370712268        8.4451488026        2.1123339772
  O         1.7296281904       14.2278226454        6.9125750288
  O        12.0956679804        9.1453684168        5.1867034061
 Si         8.0047063666       12.1120080289        0.4670772344
  O        12.7594790949       12.6803867264        6.3115649519
  O         8.5479499678       10.4566241000        7.4211371061
  O        11.9255996338       11.4297372340        4.0321115015
 Si        10.8984490462       12.9739757126        0.1666913999
  O        10.8611878905        9.2941511752        2.9537340539
 Si         9.7803923294       11.2577177006        6.7699970231
 Si        11.1200282209       10.0940338457        4.3312928696
  O        12.6774564512       13.7503739519        3.7936145866
  O        13.2536032259        8.2333707611        2.3075983365
  O         8.5592726397        7.9004182938        6.9222870872
  O        14.4112716029       11.9291512065        4.3672494971
  O         9.8885508416       10.6059846909        5.2680233344
  O        10.9470417838       13.5754300246        1.6753822579
  O        13.5848557656        8.2252554706        6.9862222673
  O        11.5979817833        8.9677558134        0.4170870135
 Si        11.6957237116        8.3583992324        1.8993631434
 Si        12.9514853464       12.4669304360        4.6971640281
 Si        12.3917540997        7.7598802920        5.9185979770
  O         7.9821884014       10.5315902575        0.8161182561
  O         7.9011240895        8.2299563934        2.2145479698
  O         7.8216922572       12.8488139446        1.8869112922
 Si        11.5602124450       14.4589792204        2.8825362136
 Si        14.7160463318        9.4291267232        6.9352846907
 Si         7.5633677800        8.9683249857        0.8185822351
  O         9.4655117224       12.8541954673        6.8301173278
 Si         5.5052836694        1.6133706820        9.7517399077
  O         6.2606698164        1.3077081416       11.1373880248
 Si         4.4177032949        5.7696501000       13.7249549210
  O         1.7798999152        3.4488021780        9.7241924782
  O         3.0302491260        5.0124992824       13.3441462130
 Si         2.9270174254        2.7526245523        8.8244146776
 Si         1.8897574855        5.6762336920       12.3853612417
  O         4.8645324335        6.4997850269       12.3411495432
  O         5.0226363972        5.3553954627        9.9588667228
  O         3.8776406357        1.8150136999        9.7849371231
  O         6.0965471910        3.0405915852        9.2988229668
 Si         5.3747647234        4.3689229957        8.7392250067
  O         0.7382593400        4.6818575483       11.8472672591
  O         2.6565925568        6.0969709795       11.0253287589
 Si         4.2306222954        6.4226612908       10.8463186546
  O         3.9381087485        3.8599778611        8.1504006381
 Si         0.4017708384        3.7880636490       10.5160063197
  O         5.5180611205        4.7560747336       14.2355340019
  O         1.3912890502        6.9339552374       13.2658963085
  O         5.8435209866        0.4176774081        8.7191051578
  O         6.8364916890        2.7951009847       13.2340553685
 Si         6.3822887639        3.4709437721       14.5969066967
  O         0.5069273385        2.0528604375       13.2430226421
  O         6.4644396554        5.0372652750        7.7373608712
  O         2.2216373165        1.8956883405        7.6544563821
 Si         7.2983292446        1.5381405052       12.3644098789
  O         7.1686474627        0.1776337261       13.2458603818
  O         0.6558757104        0.0887074738       11.5157808302
  O        14.4107540324        2.4479399359       10.9373543053
 Si        14.6910267810        2.8264247494       14.5035651655
 Si        14.5670751864        1.2798806118       12.0406489454
  O        14.1655987943        4.5438939613        9.5582445125
  O         8.8240969679        1.8968791266       11.9351792277
 Si        13.1650328312        4.4419340628        8.3006226196
 Si        10.1663799350        2.7415831537       11.5664729270
  O        11.1067277894        3.1357773741       12.8523989797
  O        11.9391252713        5.5990527281       12.5090062901
 Si        11.9962639505        4.3331237342       13.5489448634
  O         9.8758823255        4.1086164253       10.7857487622
 Si        10.2883856775        5.1066231587        9.5883636871
  O        10.5293990567        6.4938049731       10.3589543793
  O        11.6555379770        4.8581240974        8.7324952288
 Si        11.2017766627        6.8584871901       11.7716233519
  O        10.9469990079        1.8984487625       10.4433038224
  O         8.9842476060        5.1063826247        8.6531990806
  O        12.6683233845        0.6575325690        8.9755255153
  O        13.4982651709        3.7843458029       13.9130612728
 Si        11.2774651873        0.4817008745        9.7719348285
  O        13.0028445880        2.9584723498        7.7294693041
  O        13.1609531728        0.5659576736       12.4248200508
 Si        13.0440897422        1.3642394185        7.5679920688
 Si         8.0299770070        4.6428035352        7.4466095786
  O        10.0424569153        7.4113357741       12.7484427747
  O         4.2953710913        7.8428658309       10.1236462683
 Si         5.4912551784       13.7608120931        8.1510462526
  O         1.9046280174       13.9143438421        9.5172599815
 Si         0.6643466531        8.3066707081       13.7383380340
  O         5.0373259883       13.4158088363       12.6618300823
  O         3.2034958349       10.1262949522        9.6174444233
 Si         3.5862054073       13.0900703823       13.2551395120
  O         3.7067998918        9.5388291243       12.1116891535
 Si         3.0446836510       10.0384513688       13.4870910594
 Si         4.2344516392        9.3741864823       10.6080396839
  O         2.5382443431       13.3305817549       12.0723176243
  O         5.7634294820        9.8813487681       10.6281693022
  O         3.3725489202       11.5784784316       13.7313713841
 Si         1.3829831611       13.5945847485       10.9907398882
  O         1.4897180634        9.6501482573       13.4098660584
 Si         2.3712681284       13.3432333743        8.0948247384
 Si         6.6235677707       13.5001918825       12.9157730422
  O         6.0140774905       12.6579134235        9.2188191234
  O         2.0454500357       11.7786245082        7.9054511431
  O         3.9339735016       13.5706824786        8.0585108326
 Si         2.5374840688       10.2543762197        8.1391697495
  O         6.9131466700       12.5016063100       14.1540369351
  O         0.3990434148       12.3334632941       10.7786872426
  O         1.2304236485        9.2981338169        7.8922942897
  O         3.4531027942       13.9866113587       14.5905463091
 Si         7.3511166972        9.6057956026       10.4857348632
  O         7.3224165149       13.0910375657       11.5317653560
 Si         7.4086253910       12.5375243055       10.0365263276
  O         3.5419585892        9.2995718346       14.8106011363
  O         9.3660101609       12.6735297168       14.6450492645
  O        11.5207139029       13.8351100358       13.7496551625
  O         7.5763023434        8.7223258571        9.1560726713
 Si        13.6601712134       11.9068140967       10.6058723322
  O        10.3570836326       14.8114071683        8.5520123466
  O        12.1828029669        8.0697091247       11.3577365032
 Si         7.7164854555        9.0738684934        7.5870509384
  O        13.5801472967       10.2870380217       10.7833313825
  O        13.0004506908       12.3372811277        9.1482077070
  O        11.2110144301       14.3044225292       11.0436352920
  O        12.9392247109       12.6817771851       11.8392017158
  O        14.2346544935        8.3936045457       12.7469450377
 Si         9.0603835914        8.6529739128       13.0417188490
  O        11.1960087644       11.0947031637        7.5751572537
  O         9.9417157498        9.9649910445       13.4191929955
  O         8.2963372528        8.2353734995       14.3980099915
 Si        11.3591719671       10.1566327572       14.1854125349
  O         7.9854433908       11.0505965854       10.1964430377
  O         8.0639180211        8.9655809181       11.7920620023
 Si        13.1396771151        9.2239838705       11.9307660274
  O        12.4291289317       10.1372071306       13.0183858376
 Si        12.6994345402       11.7278994088        7.6534820993
  O         8.3944923419       13.4139354186        9.1440922625
 Si        12.2154753505       14.0526626635       12.2994682618
 Si         9.1152732773       14.0538047461        7.8776523092
  O        13.9029619183       10.6959152188        7.4793874607
  O        11.5996580594       11.5260071752       14.9851827709
