216
15.043 15.043 15.043
  O         2.1807674508        3.1288308760        5.6484905806
 Si         2.4449623475        3.6759764550        4.1424283065
  O         3.8397021855        3.2195058482        3.4423419098
  O         2.2776465986        5.3079394128        4.2259587325
 Si         5.0872940505        3.1348543385        2.3920652019
  O         5.5474788239        1.6602917786        1.8726901763
  O         6.3448470942        3.6939005652        3.2202953111
  O         4.7833908470        4.0556981398        1.0638925924
 Si         1.2069755301        2.1507332361        6.5128428752
  O         1.3256088765        2.8984210059        3.2850787083
  O         1.1731723812        0.6990366020        5.7990281540
  O         6.9783186611        5.9958169149        4.3007670945
 Si         3.0260632442        6.6709349860        4.7137966617
  O         4.4501563524        6.6553673120        3.9943289753
 Si         5.9605496627        7.1343869318        3.8338655628
  O         6.6580975063        3.9843622917        5.8908430498
 Si         7.1486631849        4.4127698860        4.4069314741
  O         3.3534433116        6.5919363653        6.2887483107
 Si         6.1477487108        0.1790369828        2.1410504754
 Si         7.2645202355        3.6979591469        7.3624330358
 Si         4.0856546776        7.2648630098        7.5572577787
  O         6.0356978952        7.4394333917        2.2742324096
 Si        14.9536037469        2.9022188574        2.5396120029
  O        15.0439502456        4.1660459162        1.5701535122
  O         7.6784473173        2.1223805168        7.3734273458
  O        14.7218585778        2.6707765945        6.7356376880
  O        14.6451444535        1.5031006290        1.7879459639
 Si        13.2054737060        3.1793278734        6.9966506754
  O         8.7020999953        4.0782030685        4.2339200905
 Si        10.9095928175        1.2061607609        6.3288913533
  O        13.7804008972        3.1295492675        3.6127690838
 Si         9.8054634443        2.9517327402        4.0111931018
 Si        12.6170659867        4.0816525576        4.1688533181
  O        11.2066085761        3.5938533471        3.5962801761
 Si        12.4943481421        6.6846980993        2.5799398483
  O         9.3222353381        1.9871965807        2.8268889105
  O        12.7785589332        5.5794597737        3.6852858683
  O        10.0275935968        2.1934837608        5.4110839666
  O        13.4727793774        6.3646903967        1.3369645673
  O        12.6968531400        4.0787446430        5.7626597787
  O        10.9608997472        6.7474257039        2.1052969212
 Si        14.2429426113        5.1619341142        0.6135274205
 Si         9.3416429393        0.5457500273        2.1291773266
  O        12.1484556378        1.9483172692        7.0657412518
 Si         9.9593388883        7.0372380558        0.8866735205
  O         9.9507618338        0.6927708305        0.6117227929
  O         9.8785761299        0.6297484911        7.4400650576
  O         7.7725840321        0.0759810602        2.0317398472
  O        11.5212377887        0.0844448365        5.3444498268
  O         8.4452650077        7.0439997698        1.4061993221
  O         5.7195297858       14.8800434575        3.6715013232
  O         0.6297937346       14.8909704405        3.3826777199
  O         5.1618071880        8.3880328592        7.1168179382
 Si         7.0415990956        7.7596638317        1.0929545706
 Si         1.5887309714       14.6947772075        4.6431739576
  O         1.0172348083       11.6717360217        1.0887847978
  O         3.1572570874       14.8778290595        4.2913939283
  O         2.2685445814        8.0732986530        4.3899399574
  O         6.1289842615       11.6575960319        1.3133941307
  O         6.3392509915        8.4021529436        4.7271827901
 Si         5.1877978074       11.9806708543        6.4264441681
 Si         6.1881821805        9.1690002723        6.1271666488
  O         5.3989201988       14.1040695155        1.1791410984
 Si         4.8439335556       12.5871491046        1.5490705407
  O         4.3093521245       12.7705139337        3.0589741516
  O         1.4164342987       13.1477537667        5.0117200967
 Si         2.3651689852       10.7798736399        1.2832717145
  O         4.8563981688       13.2350743157        5.5003036845
 Si         4.4824202344       13.9591963481        4.1420296684
 Si         1.5986595319        9.4941794027        3.9696256303
  O         2.4378508929       10.2713860877        2.8241448254
  O         1.4029040852       10.5032096030        5.2403065829
 Si         0.7599861668       11.9062353071        5.7749652330
  O         5.4891377287       10.5695230346        5.7190385347
  O         3.6079476437       11.7638390674        0.8623008461
  O         7.2919195941        9.3340455255        1.0910895390
  O         1.2006321123       12.1382094320        7.3053320160
 Si         7.3755537570       10.8754936155        0.6939101208
  O         2.3545061904        9.3920503755        0.4330729975
  O         6.5847298593       12.2979333127        7.1403834949
  O         0.1495493335        9.1689927594        3.3753018379
 Si        -0.0240303614       12.6523234694        0.3290161680
  O         3.9068752478       11.8275158333        7.3693138424
  O        13.0032393363       14.9667425360        3.1260860915
  O        13.6954340684       11.8165028398       -0.0801235464
  O         7.6528177057        9.3190818478        6.8195743381
  O        10.2540532906        8.4557488412        0.1630809767
  O        10.4220696917       13.3289852799        0.6138642767
 Si        12.7532320318       10.6014753552        0.4098088147
  O        10.3334267713       14.6532340206        3.0485740129
  O        13.6267824051        9.7113430862        1.4183645428
 Si        13.6560784378        9.4010460576        3.0065568145
 Si        14.4383906528       15.0469244223        2.3788780678
 Si        10.1486524222       11.7775632588        0.7474075422
  O        12.9453648716       10.5074383820        3.9199973956
  O         8.7041959631       11.5076281449        1.4070633840
 Si        12.7282889365       11.6592270674        5.0177675502
  O        14.5672069014       13.8917970223        1.2624378161
  O        11.7674629558       11.2781493607        6.2588471540
  O        11.9915692350       12.8555299269        4.2294923615
  O        12.8443687598        8.0640717187        3.2861950833
 Si        11.6954975860       14.4045678383        3.9084301586
  O        11.5024795843       11.1232291438        1.3357886512
  O        14.1967682250       11.9887585903        5.6311023209
  O        10.2766480809        9.5619078947        7.5196102788
 Si         1.0022906777        3.3758819523       11.6467389206
  O         1.8774706063        2.4398048885       12.6101425687
 Si         2.9944650789        1.5831251898       13.3695110725
 Si         4.7603426382        1.3620973971       10.8756047643
  O         1.6421534337        3.5300751251       10.1840338211
 Si         2.6343260763        2.8415038153        9.1210938655
  O         4.2404008160        1.4071545908       12.3826119773
  O         6.1233289078        2.2012414195       10.6635494706
  O         3.6061643629        1.8099500587        9.8743843517
  O         1.1103223415        4.8537492721       12.3938182154
  O         4.9340410878        4.3001361814       13.3248390680
 Si         5.3011795990        5.2342762137       12.0332510232
  O         4.5447503853        4.7832522228       10.6602308697
 Si         4.8328541352        4.7359547648        9.0421518263
  O         5.0094335607        6.7401909910       12.5230381667
 Si         1.5839343987        5.6174687318       13.7883092285
  O         3.5337198473        3.9933604194        8.4528877250
  O         6.8034302871        5.2512195039       11.5108362494
  O         3.6034470531        2.3471721083       14.6389723668
  O         6.1885114412        3.9908279074        8.5427790657
  O         2.2618539299        7.0963821021       13.7913784655
  O         4.9378452592        6.1931245251        8.3904498074
 Si         4.0564325135        3.9005736382       14.6614598311
  O         2.6691936777        4.7161624069       14.5713009730
  O         2.2591097759        0.2262090538       13.8005847508
  O         1.8595237465        2.0347911969        7.9806957322
  O         0.2401608104        5.8025679421       14.6418006752
  O         6.3595077941        7.2763801246       14.7557629689
 Si         7.7156392085        1.9471746062       10.8349343875
  O        14.6592026906        2.5123226323       11.3631267420
 Si         8.4046681964        0.8491775709        8.0698534353
  O         7.9186740664        1.0241977214       12.1383370613
  O        13.0824082141        4.1470062231        8.3018197617
  O         8.4676390033        3.3485565386       10.8961364333
  O         8.4541173728        1.1716351308        9.6401001595
  O        13.3131015219        4.9290413339       12.4650715831
 Si         9.3235695066        5.8392856347        8.4446805487
 Si        12.4277922255        5.5870554319        8.6744870791
 Si         8.3208239269        4.9005168700       11.2414869198
  O         8.9364681517        5.1799446373       12.6842544647
  O         9.0031093744        5.7177753622       10.0341582325
  O        12.3918090064        5.8801075645       10.2639792450
 Si        12.6941171023        3.7980244466       13.4838768651
 Si        12.6063537021        6.2474150920       11.8160123526
 Si        10.3262519387        5.3344015124       13.4131205655
  O        11.0934995661        3.9176737452       13.3906451400
  O        11.2060354180        6.4236672631       12.6063768984
  O        13.0884554537        2.2632987510       13.2480928756
 Si        13.7851986535        1.3287310374       12.1202689348
  O        10.8981125100        5.6366131075        8.1580553706
  O        13.3282001424        6.7493151580        7.9968547186
  O        12.5354478807        0.4628808618       11.4412762423
  O         8.9217591718        7.3286831556        7.9806061121
  O         8.5289592261        4.6936443725        7.6181344585
  O        13.1511867381        4.2263231412       14.9529904819
  O        14.8769245574        0.2390666217       12.6167181665
  O        10.1126787725        5.8154618377       14.9064124523
  O         5.1035214876       14.8972011670       10.5650796172
  O         2.9118685016        7.7668103293        8.5293449751
  O         2.2740468644       10.2614598442        8.6109714484
 Si         5.6081022627        7.8988671334       13.4654061655
 Si         1.1226747428       14.3955339280       13.0383840296
  O         4.3289239229        8.7617079282       13.9421344944
 Si         1.7412189785        8.7864395401        8.8938310508
  O         2.6686075153       12.7873689239        9.4091827690
  O         1.8782985249       13.7957595362       11.7436182027
 Si         5.6522454507       13.4634761543       10.9709950593
 Si         2.7453450843       12.6460170448       11.0164431333
  O         1.9613967350        9.4803227362       13.0030829410
  O         1.4940538086        8.7541629950       10.4880662465
 Si         1.2926495751        9.8721205027       11.6343885885
  O         1.9645608180       11.2755802677       11.2873125048
  O         4.3171143710       12.6845968584       11.5223365285
  O         6.0313614094       12.8396430175        9.5521550875
 Si         2.7230960380        8.6247522796       14.0929991615
 Si         2.5195613423       11.7756505735        8.1640374918
  O         6.7172649066        8.7776003006       12.6969647286
  O         7.0562905911       13.6331348953       11.8271443197
  O         0.6327231757       13.2325368580       14.0238373409
  O         0.3911772039        8.3951619468        8.0669122551
 Si         7.1790890138       12.9995085813        8.4364352100
  O         7.4373262940       10.8857874630       14.1043172082
  O        13.3145028546        7.6911642375       12.0587378527
 Si        10.4744681908        9.5786080932       14.0623527532
  O        10.0317373762       11.1152182155       14.3316707246
  O         9.8108437904       14.3464103388       11.4383201842
 Si         8.8248212749        8.9336789986        7.8755461008
  O        12.2962788777       10.2528374848       11.3699465220
  O        11.9779769568       12.9301616426       11.1336350299
 Si        10.1534406331       14.5064412617       14.6026637223
  O         7.5990674710       14.4919232702        7.9919742855
 Si        13.4641824890        9.1372614051       11.3125855500
  O         7.6777056135       10.8134288540       11.4474921149
  O        11.3467128082       14.4927873126       13.4821096584
  O        11.9104149404       11.2031872967        8.9282956870
  O        12.1191546291        9.7827128402       14.1744885644
 Si         7.8194792262        9.9542173341       12.8152307817
 Si         8.6081603828       10.9341620499       10.1296881115
 Si        13.8296998205        8.2607090035        8.2742757679
 Si        11.6072156002       11.4468617975       10.5188485570
 Si        11.4264254892       14.3215616869       11.8369944441
  O         8.7689371766       14.2524936175       13.7946826321
  O        10.0496890483       11.2066443894       10.7429856957
  O        13.5557526701        8.6965533174        9.7824847246
  O         8.3848326427       12.1501315448        9.0868382060
  O         9.3265154845        9.2529497067       12.9308609608
  O        14.7418059054        9.9515128120       11.8366994986
  O         8.4559896086        9.5500337074        9.3240521923
 Si         8.3765578516       14.5205271468       12.2535612137
  O        12.9294671503        9.2581681389        7.3727803191
 Si        11.7085106868       10.3247646709        7.5558472145
