216
15.054 15.054 15.054
  O         3.5908591273        1.1782996844        4.3165202679
  O         5.5677527726        2.7599413826        4.6235911645
 Si         5.5842657075        4.2789765436        4.1237418213
  O         4.9386797576        4.6344791984        2.6568615277
 Si         5.4820297114        5.5971145147        1.4487147174
 Si         2.3504674365        1.3641020968        5.3256729582
 Si         4.9226626988        6.3709539390        6.2305533911
  O         4.7781752504        5.1078904567        5.2470846500
  O         1.2688313812        2.2048762851        4.4775401096
 Si         5.1994319104        1.2106099465        4.4281600081
  O         6.7845125053        6.3535604886        2.0410784713
  O         2.6665776886        2.0322975329        6.7995150113
  O         6.0406458643        0.7758910591        3.1348462518
  O         4.4668853609        6.7138439338        0.8734850784
  O         3.4502727279        6.8345863923        6.7540824533
  O         7.1454457419        4.7040199439        4.0039054201
  O         1.4039562539        7.0359706082        2.5008977969
 Si         0.1627124162        6.0115543557        2.2565336665
  O         0.3965102442        4.7866014575        1.2512538071
  O         0.5480833680        2.3512472671        1.8856907958
 Si         0.1327578735        1.9183757254        3.3756875829
  O         5.7985524798        5.9598588351        7.5241157530
  O         5.7203422056        7.5201003702        5.4101854601
  O         5.4770461326        0.2265678877        5.6760942625
  O         5.8865564291        4.7065498367        0.1910505399
  O         1.7190826631       -0.0848056514        5.6538573241
  O        15.1273687871        5.1083544530        6.1778319906
  O        14.7446866122        5.4852251467        3.6816005167
  O        14.8119457956        0.3781166029        3.2970248869
 Si        14.9276857725        3.3282546179        0.7949112806
 Si         7.8498111527        5.9018459851        3.1784563638
  O         8.0877137198        7.1103547850        4.2326709512
  O        14.0312803480        6.8335382386        1.5634708101
 Si        14.0195254274        5.6062515578        5.0947302021
  O        12.7700970801        4.5636111388        5.1766838994
  O        10.8895930726        1.9453851176        1.4952837331
  O         9.1814513528        5.4155891466        2.4217342008
  O        13.8775207411        2.6637435224        3.9222897543
 Si        13.0904403519        2.9828904281        5.2902617324
  O        11.8380627568        2.0345282607        5.4146488363
 Si        10.3774957398        5.7818352120        1.3939220767
 Si        10.0794382317        0.7610807318        2.2831806430
  O        11.2075487188        4.4658067440        1.0236733034
  O        13.9614028491        2.8265912237        6.6568076210
  O        13.3288747759        3.0554246458        0.8620302686
 Si        11.0786748191        0.6307481915        5.2414140068
  O        10.1899523394        0.8480993984        3.9031404601
  O        13.4138270066        7.0630746644        5.3368483278
  O         8.4846010243        0.7173966152        1.8971197945
  O        11.2192182451        6.9744182388        2.0425620436
  O        10.1889218292        0.4712067178        6.5699240560
 Si        11.7299301391        3.0063358362        0.5892664422
 Si        14.7464135166        4.0620151597        7.3574833874
  O        11.2987932513        7.4411993151        6.8894453946
 Si         7.0603708067       15.0211868565        2.1759091304
  O         6.2591931834       14.7416971824        0.8005272863
 Si         4.2117382513        8.2404365924        0.4261267062
  O         3.6801206399       14.0354738063        1.2446393469
  O         5.5919142660       10.9868394370        6.1154738735
 Si         2.3989635835       13.0355612121        1.5023800599
  O         4.4658197176       10.2712024180        3.1364839551
 Si         1.6195948048        8.5990007442        2.1186488227
  O         3.1328357715       10.9743519734        5.2365302631
  O         1.9574104901        9.5619510905        3.3702977252
 Si         5.7940792608        9.8941385006        2.3449246062
  O         2.6774192329       12.0606460047        2.7612758087
 Si         3.0316309383       10.7481676522        3.6354151472
 Si         4.0718862192       10.6968989677        6.5361145031
  O         6.5878865648        8.9408397352        3.3512851061
  O         0.9495126044       13.6500136163        1.8781015817
  O         6.6637791331       11.2123317223        2.0375727625
  O         5.4182053433        9.1736343272        0.9561760551
 Si         7.0050117209        8.2132926781        4.7172237174
  O         2.8328293144        8.7112712769        1.0892823386
 Si         0.7807884206       14.5526855493        6.9100037921
 Si         7.1822004459       10.8807516782        5.8635280261
 Si         5.2554046453       14.6973104353        7.1707350509
  O         4.0641593455        9.2085990641        7.1489575712
  O         0.2630165368        9.1094050876        1.4140113504
  O         2.2678952187       12.3134003483        0.0679047780
 Si         4.8569891087       14.2943041836        0.1232242612
  O         7.3695677709       13.6300438591        2.9025003746
  O         7.6066147842        9.3224140240        5.7260309992
  O         6.3622931861       13.5571633315        7.3084774055
 Si        11.4108599329        8.4292376282        2.6782438989
  O        10.8033552238       14.4385638443        1.8893545042
  O         7.5306040727       11.6073758738        4.4791381344
 Si         7.6828697619       12.0666389458        2.9580296178
 Si        11.9039487984       13.4996688271        1.2087885122
  O        11.2917355947        8.1501179422        4.2534330823
  O        12.7830675124        9.0182663588        2.0420819505
  O        14.4267456521       10.1936021487        7.5306690639
 Si        13.4160433709       13.4770633703        5.3139763274
  O        14.3576013732       14.2751758577        6.3567285485
  O        11.6773986091       11.9985460410        1.7951958786
  O        12.0976635736       14.4178888925        5.0884511005
 Si        14.6246097982       13.9921958048        2.6366287018
  O         9.1699637550       11.8424170673        2.4224888149
  O        10.1193255582       10.9846904314        0.0637536462
  O        13.1027748130       12.0497813523        5.9708277826
  O        10.3565970762        9.5798161229        2.2764828845
 Si        13.9246327596        8.3700557410        1.1127029181
 Si        10.3416860847       11.0771240062        1.6622308887
  O         7.9990363252       11.5993043736        7.0536004629
  O        12.6326074169        9.4886354550        5.8705953940
  O        14.1830831009       13.1035685171        3.9229510387
  O        13.4119311478       13.9558929924        1.5627682788
 Si        12.1282972490        8.0014586898        5.6158406677
 Si        13.0565221901       10.6958379447        6.8143179431
  O         1.1913446019        1.9573359565       12.0696113068
  O         3.8442582141        1.7243868475       11.9234260206
 Si         2.4228114240        1.4105009116       11.1885599584
  O         2.4367637473        1.9577939567        9.6427065351
 Si         5.0245612337        1.4414636144       13.0098756235
 Si         5.5383441787        5.8755592099       11.3476075591
  O         5.6445424930        2.7422658333       13.7238315708
 Si         6.1262496288        4.2694100399       13.7311939720
  O         5.6351329188        5.0238205639        9.9774844266
  O         5.1800565616        4.9461859171       12.6155820195
  O         6.3587623926        0.8524932957       12.3142539488
  O         1.7924945163        6.7458300781       11.4454075662
 Si         6.3368033554        4.8411316776        8.5348316961
 Si         6.6260644353        1.9411292894        8.4320716907
  O         6.7536687073        2.0359374516       10.0326001743
  O         6.9658997064        6.5815312436       11.6703306762
  O         6.1082631557        3.3687636755        7.9147678400
 Si         1.7453102266        2.0264642642        8.1723889943
  O         4.4619570537        0.4049054520       14.1179421827
  O         0.7006157826        4.3990373356       12.0679117792
  O         4.4059200350        6.9681371800       11.2804181006
  O         0.9366469626        3.4375540618        8.1551591778
  O         0.7889298394        0.7183306323        7.9898315043
 Si         0.4233720294        5.9467059343       11.7683670370
  O         0.3976681339        3.0553709101       14.3540723932
  O         5.4850224636        0.8660409003        8.1622619152
 Si         0.2107296675        3.0230565502       12.7487501518
 Si         7.4043855684        1.0408571391       11.1217598297
  O         7.6650010512        4.7078912388       13.3294615377
  O        14.6681749144        6.4301194315       13.0944756398
  O        14.5176332849        6.1257502761       10.4941682717
  O         7.9154460026        4.9406673516        8.7048333672
 Si         8.2567508382        5.8154976385       12.2704869615
 Si        13.8138479298        6.3623125234        9.0802775734
  O        13.7097461299        2.6687003638       12.4674326712
  O        11.3687613538        2.2686390752       11.3675553064
 Si        10.1035663742        2.1005800510       10.3740184504
  O         8.8589585377        1.7190313000       11.3703237029
 Si        12.2391810878        2.0325089049       12.7125396433
 Si         9.2770943762        4.9191614147        9.5318251735
  O         9.9630234671        3.4531084303        9.4771840798
  O        10.1782213941        0.9280947444        9.2324248967
  O        11.5414083068        2.6698018558       14.0495360718
  O        10.0224692890        6.1816273142        8.8672292753
  O         9.0153384730        5.0217575419       11.1115975831
  O        12.3336107737        6.9101178730        9.3269455836
  O         9.3374002516        6.9211944180       12.7172936976
  O        13.7984035307        4.9381691277        8.3257805083
  O        12.3786419299        0.4405627822       12.9383045191
  O        12.0109025280        6.7522200740       13.2537444743
 Si         9.3249594726        0.4426337933        7.9229575654
 Si        10.5233605312        7.2093438877       13.7663714649
  O         8.0151687745        1.4118434380        7.7738779303
 Si        11.0300262310        7.3640547430        8.4916516732
  O         9.9453810287        6.4180692659       15.0396781872
 Si         3.0213763309        7.6144590359       10.8455495053
  O         3.0542584749        7.6847507600        9.2404040394
  O         2.1254217995       14.8890953421       11.1429804377
 Si         2.8600894297       12.9508420776        8.2574695083
  O         4.0825789279        8.4668536630       13.8847979404
  O         3.0640430524        9.0832321805       11.5049920132
 Si         3.5328066080        9.6578383136       12.9332546138
  O         4.6266092986       10.8353264045       12.7813747000
  O         4.0572134703       13.3348597432       11.9888510477
 Si         2.5813585052       13.3765988929       11.3613334121
  O         6.4324188126       12.5486084167       11.9964193493
 Si         5.0688996429       12.3896544018       12.8048280551
  O         2.6674355682       12.7774180985        9.8572831333
  O         1.6547204034       12.6153997577       12.4667870983
 Si         1.5389619547       11.7067213647       13.8256546969
  O         2.1979089911       10.2725792231       13.5683797884
  O         5.1100106013       12.9305552935       14.3305314541
 Si         3.0166818691        8.1070950332        7.6825787867
 Si         0.1364543080        8.9770697057        8.2732512222
  O         3.8318021346       14.1235271434        7.6784606113
  O         1.4077326010       13.2439217874        7.6097597025
  O         7.2811953097       12.3194591281        9.4545377533
 Si         7.4884321719       13.0111430941       10.8958087747
  O         3.5260077493       11.5949696472        7.7459879430
  O         1.5572030321        8.7851438923        7.5301602217
  O         0.0008559577       11.4468752576       14.1951487563
  O        15.2055665997        9.3288201298        9.8823070544
 Si         7.6543156667       12.8744064480        7.9807180220
  O        10.4180638000       10.7384180093       12.4730745296
  O        14.5031669128        7.5134235963        8.1646277606
  O        14.2003309363       10.9819457469       11.7683143662
  O         8.8542458248       13.9509423973        8.0769219355
  O         7.5909978092       14.5924571906       10.5786114013
 Si        10.3286472647       12.0154448728       11.5079630424
  O        13.6311149035        8.3797052910       14.5883503706
  O        12.6491285295        9.7835859468       10.1025623076
  O        11.6176819463       13.6383432668       14.6697238421
  O        10.5739093902        8.8604372715        8.9503383863
 Si        10.9683146701       10.3374793397       13.9134968018
 Si        13.7980058258       11.5767584843       13.2149963278
 Si        11.3821696859       10.2415995464        9.2587658579
  O        10.6539394390       11.4444005357       10.0368487433
 Si        12.1680189121       13.9299507032       13.1755410389
  O         8.8558626731       12.5531927663       11.5322382409
  O        13.7136043698        8.4681926352       11.9930066434
 Si        13.9912474734        9.6329503635       10.9304538983
  O        13.5675862978       13.1606567590       13.0214851393
 Si        13.4702331831        7.4982934803       13.2475104321
  O        12.5241603640       10.8272151836       13.8840028393
  O        11.9059726133       10.9072050024        7.9066513800
  O        10.7457037576        8.7635167290       14.1050722656
  O        11.2138320819       13.2458338438       12.0648889862
