216
15.051 15.051 15.051
 Si         2.3048615508        1.6525599622        4.4793180115
  O         1.5756173900        2.5847358999        5.5629026531
 Si         0.9207077438        4.0460447559        5.6740428875
  O         2.6585056928        2.5858304489        3.2115229038
  O         5.6533455881        6.3285906546        3.2121086285
 Si         6.1257235757        4.8497100882        2.7332599127
  O         4.9375309131        3.7660083194        2.5827014240
  O         3.6872091470        1.0322519608        5.0180400532
 Si         4.9617355759        1.2788353757        5.9639920942
  O         6.0250533611        2.2648387493        5.2561251495
 Si         3.6796258142        2.9383801164        2.0179793777
  O         7.1395061036        4.1429221085        3.7745324867
  O         1.9620604842        5.1727910808        5.1039132866
  O         4.0830264245        1.5110479088        1.3366760845
 Si         3.0075324064        6.2437899780        5.7763550338
  O         2.9782510601        3.9290596056        0.9616515618
  O         6.8804742754        5.0828118314        1.3279082061
  O         3.9993833768        5.3245781400        6.6686026454
  O         1.3368477338        0.3984182434        4.1479455384
 Si         7.4185697730        2.8370032828        4.6972033171
 Si         7.3396942542        6.2404897515        0.3221914659
  O         0.4696117163        4.2359961303        7.2090847281
  O         4.0034413464        7.2085009524        4.9280823579
  O         2.0338280034        7.2200420728        6.5932736479
 Si         3.4086002324        0.0881622635        0.9237853061
  O         4.3990722201        1.8936307072        7.3421832975
  O        11.2736319164        1.0315064267        0.0732717008
  O        14.5832067267        4.0755795556        4.8608661976
  O         8.3933799736        3.2885306997        5.8774136634
  O         8.0019396522        1.3272946298        1.4128964796
 Si         8.8297451470        4.1242320633        7.1650672976
  O        14.7411571447        3.5971162263        2.2784911049
  O         8.2283571616        1.6590983402        3.9238524138
 Si        14.3535869446        3.7774243427        0.7182071282
 Si        13.8195329223        4.1550402103        3.4794993322
  O        11.2806581770        5.1638853638        1.8157888416
  O        12.3894284261        3.3718035227        3.4410211273
  O        10.6576087619        5.0185701194        4.3257306310
  O         9.8835301377        3.0673756872        2.5202148211
 Si        10.9945088983        4.1226313251        3.0343711117
 Si         9.1008961316        1.6433131709        2.5691149404
 Si        10.5474689763        5.9163609647        5.6526389683
  O        13.4766686910        5.7058671524        3.1193909666
 Si        12.7031634162        5.9438184943        1.7014606471
  O        11.9043358196        6.7274296866        6.1120753971
  O        10.1857364752        4.9463330548        6.8960682671
  O         9.2441799285        6.8298205186        5.3420446014
  O        13.5548218901        5.1806274489        0.5541285069
  O        10.1988497594        0.4569011150        2.4162159151
  O        13.4711264909        2.5045107161        0.3112894607
 Si        12.9961792365        6.9512357330        7.3222356212
  O         8.1649417008        7.3720129140        1.1676343578
  O        12.5421565348        7.4964580063        1.4903697586
 Si         5.3820181310        7.6298347230        4.1464508158
  O         5.6351308272       14.9008863076        6.2744594159
  O         2.0319075347       14.9830955866        1.7209231076
  O         6.7477136569        7.9073034769        5.0122280715
  O         4.2356422078       13.8662259616        1.4922824715
  O         4.0216017058       12.7771434197        6.5178343410
  O         6.5915071766       14.1845347148        2.1190253418
 Si         1.2894990352       14.3365628970        2.9823614392
  O         5.0882492615        9.0400764638        3.3790708268
  O         5.0226213009       13.5655581969        4.1679487761
 Si         4.3864815588       10.3414711782        2.6975243246
 Si         5.2991326535       13.3060829947        2.5930711335
  O         5.3290222266       11.6775623028        2.5970326163
  O         2.9211136235       10.5858829093        3.3577774802
 Si         1.5482142131       11.3491769491        3.7439154634
 Si         5.3203793690       13.4106706773        5.7540789873
  O         1.8750360930       12.9270464316        3.5240685495
  O         1.2540012467       10.9778200825        5.2659124488
  O         4.1649876237       10.0311766382        1.1600474723
 Si         0.7458305843       10.8931941584        6.7774013403
  O         6.6503736210       12.5419149190        6.1101029097
 Si         7.2394653929       15.0402086229        0.8996475054
 Si         0.8841706397        7.9038665358        7.4834080864
  O         1.0345811538        9.4796313926        7.4431688507
  O         0.1671309598       10.8972282607        2.9833480411
  O         1.7197460674       11.9087582200        7.5893696476
  O        13.1706966672       11.6825795988        4.5278489777
  O         7.7588366828        7.6817647959        7.3754116177
  O         9.0161037795        9.3200561468        5.7209560297
 Si        11.9770567360        8.9916900061        1.5332869462
  O         8.2274987222       14.0334430783        0.1620484209
 Si        11.1515560970       14.9562695412        1.2231615972
  O        14.8888350728       14.0267999531        2.4368998894
 Si         9.2718457774        8.3491382278        0.4963315365
  O        12.4729317308       12.9310950779        6.9013085740
  O        10.6646588771       13.5573295485        0.5613058424
 Si         8.1641451846        7.9403136769        5.8230650838
 Si         7.6130147917       12.1588659146        7.3585541007
  O        11.4440930842       10.6525266702        6.1923716602
  O        14.4587280472        7.5237625457        6.8945540600
 Si        12.8049522292       11.5562188172        6.1002237942
 Si        13.5941033282       11.1115888941        3.0627946132
  O        12.6957842289        9.7923110769        2.7450721445
  O        13.2406372566       12.1408136570        1.8802350879
 Si         9.9475975220       10.2277103646        6.7005717688
  O        10.3438777208        8.9417552012        1.5661700468
  O        12.3913220282        9.6462257896        0.1411897267
  O        14.1827528022       11.0581374915        6.8191209772
 Si        13.7580851349       13.5875847717        1.4077827517
  O        12.6244369600       14.6684229876        1.7309193053
  O         9.0189067965       11.5287730111        6.9019148178
  O         2.8257331960        1.0913027475       11.8388906633
  O         4.5563718848        1.7190791974        9.9589552623
 Si         2.3034221193        1.1111843877       13.3560766476
  O         2.1107302430        6.1093902093       11.2626968900
 Si         2.6600811580        6.3983516266       12.7189691920
  O         2.5065263109        5.1733526627       13.7233302070
 Si         1.7480401353        6.1357790488        9.7238869879
  O         0.7147304206        0.8648328124       13.2247734709
  O         3.1311330921        5.7911214290        9.0117951475
 Si         5.1845871132        2.3964520318        8.6502428246
  O         6.7265478613        1.9623385040        8.3931316514
  O         2.5989783235        2.5832188684       13.8741820370
  O         5.0198152208        3.9903055879        8.7733098902
 Si         4.3225187233        0.8907180109       11.3023117256
  O         0.5440682979        5.0932226403        9.5654544777
 Si         6.6708405901        0.9205977664       13.2378368793
  O         5.3355731922        1.3359886170       12.4634472126
 Si         4.4423672621        5.3814153657        8.2206306114
  O         4.2301418510        6.7342373354       12.6982113414
  O         5.5855588499        6.5075977964        8.3862860436
 Si         7.1904246729        6.4548158232        8.2596300593
  O         6.0418030492        6.8972871288       14.6542469156
  O         3.0510185397        0.0835821197       14.3826242083
 Si         2.1766612096        3.9146266617       14.6252682334
  O         6.2674411147        0.4826821895       14.7454629554
  O         1.1586061308        7.4682814678        9.0190360081
  O         1.7329902515        7.6040311382       13.1753185731
  O         0.6078667217        3.8439039843       14.8817922820
  O         7.6916781575        2.1918881754       13.1743506134
  O         7.8379688448        6.4259171327        9.7270461286
 Si        14.4730811756        1.2136965706       12.3454170250
 Si        14.5581765004        4.5643733927        8.4612424336
  O         8.3719953979        5.6394513718       14.2738698259
 Si         8.1905161439        2.0127535673        9.0683472490
  O        14.2749555404        2.7508643433       11.8334237940
  O         7.9023235916        2.4323625881       10.5903137671
  O        12.2191689516        4.2922509410       11.2819194901
  O        11.7563871326        2.9746568635       13.4889340700
 Si         8.7492825383        2.3596960355       11.9542902213
 Si         9.6324553918        6.3050321582       13.5029622501
 Si        13.1652809526        3.1247431179       10.6862536104
 Si        11.1853235519        4.0785127731       12.5138387512
  O         9.7107563187        3.6206532637       12.0580371156
  O        12.2309003757        1.8177144485       10.4308160241
  O        10.9647253175        5.4290981378       13.3309429042
  O         9.6359246538        1.0130987375       11.8421483077
  O         9.0982591747        6.6743923614       12.0374502987
  O        13.2394174512        0.8605940530       13.3301521566
  O        13.8082601593        3.3757639728        9.2405030629
 Si        12.8600632350        0.3600241074       10.2415384752
  O        14.3322263928        0.3826389620       10.9522873644
  O         9.0092669001        0.6424971237        8.9356503740
 Si        12.4333910697        1.8208987645       14.3411415433
  O         9.1019914704        3.1358666584        8.3859037557
 Si         8.8746554113        7.2962513884       10.5873568281
  O        13.3489159092        5.5389211052        8.0116699086
  O        10.1143008988        7.5309742852       14.4287723421
  O         7.5948308727        5.0936644789        7.5107640574
 Si         5.2923306724        7.6702923010       13.4517191196
  O         4.1698270454       10.8979535553        8.3893149918
  O         4.4808660608       14.3667048740       11.1317287775
 Si         1.1669985538        8.9984079356       13.6483180030
  O         6.3618535548        8.1539856005       12.3650636840
 Si         3.9622117758       12.9918070196       10.5483661662
  O         5.3204978349       12.1501560341       10.3317930694
  O         2.9083319365       12.2337424743       11.5157038184
 Si         2.2253991959       11.6235118476       12.8332962723
  O         1.4860939762       10.1858272946       12.5575306108
 Si         5.5429163453       10.9367170822        9.2929709745
  O         5.8821808547        9.7105719117       10.2885020422
  O         3.2994702294       13.2398315936        9.0896266791
  O         1.0987239067       12.6323564196       13.4033017136
 Si         6.9471086995        9.3380041353       11.4517047111
  O         3.3746963185       11.3501041925       13.9561336550
  O         6.8089085437       11.1313024577        8.3137884263
  O         4.4653863598        8.9472485685       13.9523151966
  O         2.0192031532        9.4048051023       14.9646318978
 Si         3.2872036166       12.1919865785        7.8516471462
 Si         3.5342509659        9.9536030925       14.7788990029
  O         7.4512508611       14.7622447998       12.4715689524
  O         7.4497039039       10.5147475284       12.4700824151
 Si         9.0069728298       14.5845380545       12.0066498215
  O        11.4363455500        9.6314983714       10.3314416783
  O        10.2686402264        7.3786522770        9.7865604038
  O         9.8670307923       13.8734049482       13.1506630262
 Si         9.4686400580       13.2759362125       14.5789789511
  O        14.1877773058       13.5719311082       14.8930049891
  O         9.0875554816       11.7533677147       14.3339706398
 Si        13.3920559772        9.7513670530       13.9566762945
  O        11.9782921701       14.3316076114       11.0701591274
 Si        14.5467638059       12.6436329081       13.6074830298
 Si        12.5887734260       12.8345092741       11.1788575935
  O        13.8789660526       12.9401785946       12.1573562173
  O        12.3784324986        7.9978271369        8.3901536048
  O         8.2746909661        8.7829901811       10.7283250418
  O        14.0294149273       11.2048002249       14.0325060961
  O        12.7856463990       12.4638571690        9.5830015980
  O        12.5544543594        9.4806060735       12.6211117413
  O         9.0191707530       13.7250084232       10.6500537034
  O        11.5913485736       11.7742925005       11.8300745505
 Si        11.3515089832       10.1850217879       11.8307636291
  O        10.1872692979        9.4091635998        8.0684402062
  O        10.5801875326       13.5654098103        8.5448272597
 Si         8.7161117157       10.4414310537       13.4941826209
 Si        11.0862782260        8.6097208627        9.1379651646
 Si        12.1833082942       13.4429789746        8.3999713074
  O         7.9750109070       13.4648487310        8.2241769953
  O        12.8594297554       14.8955663144        8.7052627745
  O         9.9732869843        9.9499878968       12.6145290290
 Si         9.1670800825       14.1037141804        9.0825458735
  O        14.6622363991        8.7702302740       13.9617551452
  O         8.3972983569        9.3994855921       14.6828089274
