216
14.949 14.949 14.949
Si      0.037803993700009      2.694643790200024      1.203293392799976
O       1.036622288500003      2.107203193300024      2.307316719299999
Si      0.082500217400018     13.629287591800010      3.866695896099993
O      10.988307492300013     14.066130178200009      5.104925402199997
O      13.493346837000015     13.821460368200000      4.268983253299989
O       0.694551928599998      0.125184139900022      3.936071050299994
O      14.065038392500012      3.844434188900025      1.863788142599981
O       0.590839820200010      3.853089736300025      6.428155888100003
O      11.568084678300000     14.125873088300011      2.553053451099986
O      10.390924404000017      3.431924114800026      4.020663330699996
Si     11.961491420900010     13.491181019200027      3.980515851699990
Si      1.660308852600008      1.311591886600020      3.542966865599999
Si     11.801245133600009     13.525434909500014      1.077845702599987
O      13.974657752399999      1.530633583500033      0.693126895899995
O       0.367280487100018     13.054026378400019      2.353841078799987
O       9.989605332500016      1.045705046300019      6.655450039600007
Si     10.121935968500001      2.834342252100016      0.298533821999983
Si      1.837763097300011      2.831364499600029      6.296558222200002
O       1.015623243500009      3.267218197700017      0.027451663099990
Si     10.797076849199996      5.004976099900014      3.895255694399984
O       1.768098488600002      2.203646802400017      4.847434444700004
O      13.230872769000005     12.831370672800011      0.863849375299990
O       9.747743268200018      2.279465907200007      1.775758447199995
O      11.819329303400021     14.817399659600024      0.122620246699986
O       0.772775133200005     12.744296611400015      5.019358094899996
O       9.989061046200000      4.440902604400011      0.198167520299986
O      14.562403550700008      5.013454291000015      4.200113338099998
Si      9.699793653800004      0.027880078100016      5.432155971099992
O       9.431081747699999      0.916202627700021      4.114371334699995
Si      9.376113338700009      2.344913624400006      3.352341861599997
O       8.571684386600008     13.981213663400009      6.015526214699988
O       3.117005884700008      0.771894911800006      3.182034764599996
O       7.012508647400002      1.114311538100025      1.596570123599976
Si      6.494560137700002      2.014917292200008      2.848422036299993
O       5.666796784200002      0.951677584300015      3.778683705300000
O       7.792628450300000      2.707787470600021      3.509048812699986
Si      4.493703720400005     14.917172785400005      3.206847960699987
O       5.500367849200004      3.179594294500020      2.361779185900001
Si      4.761879334000012      4.359734744800008      1.566452520999990
O       4.912790067500013     14.565310909500006      1.692463561099986
O       3.254891876899998      3.599407533500007      6.354021103700002
Si      6.177480798100007      0.001479045900011      0.777487176099986
O       4.338970107800008     13.484733868300005      3.945974208099989
O       7.002506216000020     13.582678712200007      0.533539176999998
Si      4.298370381000010      4.777309555500010      6.631510345199994
O       3.411881084900017      3.861216892800022      0.869827964199986
O       5.429419943400013      4.770359649500020      5.439153637400004
O       5.754848221200003      4.937228170100007      0.441052584399985
Si      7.661034439800010     12.756289006100008      6.560248937199996
O       6.434165354900009     13.316618046400023      7.499020176999989
O      10.734436022700010     12.330010968900023      0.857637393499992
Si     13.814190448400019      5.153151957000010      2.767936390699983
Si     14.852811870700020      5.169332806300004      5.788524712099988
O      12.246637500199999      5.257098930100008      3.200994134699988
O      11.902655203500007     11.902902249400016      3.854645221900002
O      13.565914474800003      5.587223441900009      6.669335715700003
O      10.557099879900019      5.692379041700018      5.354602444899989
Si     10.278341265700007      7.127166127500024      6.105407659299991
Si     14.481808011400018     12.019938997700015      1.410447575099979
O      14.052125092300003     10.900071853200002      2.449157513399988
O       0.954921880600013      6.358815174200007      5.929980346999992
O      14.395283980700007      6.352170730900013      1.797832966699979
O      11.482881809100004     10.331598768200019      5.848115843999996
O       0.344021737500013     10.243086570900010      4.693151230299995
Si     14.333055278800005      9.745663638000021      3.506280242999992
O       0.175448138000000      8.574338538600008      2.783941097099987
O      12.823928919599997      9.349869824600015      3.941524116599993
Si     11.607313203399993     10.390294362600018      4.249955208199995
Si      0.278685600099996      7.706492512100017      1.439018254799991
O      10.242930367300005     10.075201701000024      3.438846263199998
Si      1.471639303700006     11.310996336500013      5.152392428199995
O      11.648287272300006      7.356508085400026      6.928994779200001
O       1.855652449900008      7.583808340000009      1.122522305699986
O       9.800684248500001      5.684193560400013      2.851477501499994
O       9.892645967000014      8.164662277400026      4.936439888899987
Si     12.045558225400004     10.812573137100026      7.263483197099987
O       1.939563564999998     10.970872919000010      6.662403838500002
O       0.107008187200016     11.175051724700014      0.138152964599989
O      12.393999364600006     12.399240265900023      7.179660514300000
O      14.718774948699995      8.506910527100025      0.121618180599987
O       3.511116424900004      6.189772252599997      6.516497234300009
O       6.333480102800032      8.678764927800005      7.423735975300001
Si      8.443036843500003      6.438854467600017      2.500990728999994
Si      9.081493303400006      9.034466919100003      3.843854940599988
O       9.084088659200003      7.432028666200008      7.163476706799989
Si      7.049293490300022     12.007666743700012      0.938263173099992
Si      2.395757422699997      6.969886743700001      5.634486314099997
Si      2.187217975700018      9.489554023500004      7.286729113099987
O       5.321607389500009      7.188441006500025      4.344858443499996
O       4.355233278900003      5.504686163500020      2.604002059599999
O       5.666933223500018     11.309729355500005      0.446796094699984
O       2.268345025300003      8.508797180700011      6.020136096300000
Si      7.474500000000000      7.474500000000002      7.474500000000002
O       3.270622568700007      9.916333738100024      0.523142573399981
Si      6.320608733400007      6.038705406100002      4.885289744300000
Si      6.865209383800004     11.176427390000017      3.942004082999993
O       8.319744023100011     11.335700040400004      0.202784683999997
O       7.338421767800023      5.846213680300012      3.601394051599995
O       7.742728028900019      9.842477383700020      4.268947299999989
O       5.262581324600011     10.989582732800022      3.771038797499997
Si      4.031377290400019     11.349802492700023      0.439931504699993
Si      4.147432730399993      6.950319165499998      3.261490667599990
O       7.326609511800006     11.829575202200024      2.527568839899988
Si      4.012483461800005     11.967485142200003      3.436139905899999
O       4.179005369600001      8.085175268900020      2.124512774599985
O       3.673489240499996     12.068465231200024      1.852676086999984
O       7.002754392700007      6.509818441400020      6.267074321399993
O       7.080629262500009     12.151664736700026      5.189357744099982
O       8.495244627500004     11.569681060300015      7.355622257399986
O       8.578969754500008      8.027207932500019      2.703828632400000
Si      3.257358927500000      8.331657918700024      0.822052849699989
O       8.335573918699994      6.333815817200007      0.874509032299999
O       2.757275511900005     11.321925795000022      4.187459487499980
O       2.754688493900004      6.912623575100003      4.065053333399997
O      14.563847510300008     14.732402412300011     11.169296409899998
Si     13.771980733099998      1.096245231200019     11.736992020799994
O      12.498357266500005      1.363339294800023     10.761704749999991
Si     11.126396745200015      2.201799194900024     10.571860502099970
O      14.707904045200010      2.430225518100015     11.823909492199990
Si      0.199635958700000      3.622197156100005     10.816871553999997
O      11.389878092999997      3.772194141500026     10.589532118500001
O      13.225808563900003      0.935088967400024     13.233792496799989
O       0.966650017599996      2.765331722400007      9.664775825599985
Si     14.818684899399997     13.400399056700014     10.244061887099987
O      10.571173254600005      1.862618437800027      9.097037148799984
O      14.067176975100001     13.645205509800002      8.841594998699975
O      13.857564493400016      4.510961311000025     10.421718553399996
O       1.347740410300009     13.073926955500001      9.677129151799992
O      11.717914607600015     13.065666762600001      9.597763715999992
Si     10.158595912999999     13.337566097700005      9.873693304799991
Si     12.581506038400015     13.532844064400017      8.311257716799984
Si     10.566348917800013      0.631578039200010      8.084716785899985
O      10.082713701400007      1.861738569300027     11.745026566799984
O       1.181453818000025      4.758724677600012     11.410515356899984
O      12.055884552900018      0.028403853500026      7.841999297200002
Si     12.678506961200000      1.194463456500009     14.719437122799988
O      10.004957981700009     13.980736927700026     11.319746205199989
O       9.664372921400005     14.396752964800021      8.749810888199985
O       1.778964923900020      1.709402645600022      7.468967631199992
O      11.644710779400008      2.432574233500028     14.877426671999997
Si      2.145907538000019      1.819135356100019      9.048082741399991
O       9.660594716700011     13.134873467000023     13.741152221099989
O       9.080129860900023      2.274743693500012     14.152558528399993
O       2.439736727700003      0.378753452900013      9.751140470599994
O       2.845733710700011      4.280544902200030     13.257243580399988
O       8.323954686600011      0.204949838600025     12.898127263899996
Si      2.794337894100012     13.729739775200015      9.873358162200001
Si      8.779578338400022      1.728028342400024     12.674351032799992
Si      8.927526055100010     13.746557993900021     12.481939273499988
O       5.662148555400006      3.691862156200025     13.071693946799986
O       4.923575556800022      1.522584952000024     12.080559111399985
O       7.563049304300013      2.432145909000026     11.909062282599992
Si      5.990214569500012      2.729237288200017     11.823735331199996
O       3.439608929400016     14.584798339000017     13.329235113899998
Si      4.449170568400003      3.863546819400010      9.561467984899997
O       3.526881050000010      2.615365516900007      9.175006930799984
O       5.761011192700007      3.346196953700013     10.345837991999989
Si      4.297943132100015      0.980788685000034     13.489795161099986
O       4.841245989400002      4.611254871700017      8.168342797899994
Si      3.840083640400016     13.132116266300024     12.812257331299985
O       3.934051683800013     13.316937508900008      8.765490623699993
O       3.188826240900000     13.073577270900001     11.326902974100003
O       3.194557689599999      1.930722387000009     14.151336190899981
Si      2.577973905500003      3.351029541100018     14.545796562599985
O       5.597406071600012      0.696706446700017     14.402921975499986
O       3.675008801400018      4.763365683800004     10.660896315999979
O       5.425585079200006     13.070946396099998     12.574129069400000
O       7.840936410300004     12.733895073000010     11.923907205999992
Si      2.675390276300021      5.108326145800009     11.883213422699987
O       6.088718531200003     12.660007211300012     10.006640200699991
Si      5.407491135700014     12.618895377700021      8.552896588999998
Si     12.326774737100003      5.048170280300019     10.373777846299992
Si     12.805718186500020      6.551072521600013      7.723784082199997
O      13.393251660300017     10.081340003900022      7.750285434899997
O      14.387704952900013     12.083697992000010     11.076467820199992
O      13.814423809300013      7.598686839100030      8.423823995199994
O      12.142790890799997      5.683002437700010      8.907599228099997
O      12.731887177300006      9.922716324400026     14.393824796499992
O      11.816591113100007      6.103224295400021     11.503744100499992
Si     13.934130470599998     10.585120524300008     11.448733354399993
O      14.734284191500004      9.996879999500015     12.749914886400003
Si     11.666730537599992      9.891306795900023     13.170547888099987
O      10.334278925600014     10.591048556799995     13.735384834099984
O      14.146855845200008      9.588108863600022     10.193432260400000
O      12.378570429200018     10.654907196799995     11.919227893999997
Si     14.318501595200008      9.114962714000017      8.657285863599988
O      11.318393802400006      8.415123585600018     12.659107463499987
Si     10.641124268600002      7.064168690100013     12.106538845699991
Si     14.354123079000017      9.898240846900022     14.331271260599987
O       0.937484693500004      9.172057304000019      8.259232737899987
O      10.816600988600005     10.500603263299991      8.256782665999999
O       9.897310454600003      6.424716503100004     13.413736290399994
Si      9.766481522300012     11.808568762800013     14.626910372899994
O       9.655866778100002      7.428612065000026     10.841566039299993
O       7.342596611700019      8.429893111800023     11.336671546299987
Si      5.186131970700014      9.512894794400021      8.257355733699983
O       7.581006870400016      7.157751491100024      9.074670549699984
O       8.657838834200009      9.499040462000016      9.258941988599988
O       3.607894860800005      9.251918092300000      8.007125520200001
Si      6.176047054500015      5.000068353500007     13.838448286299991
O       3.511687107600010     12.069636708300012     14.007407307199985
Si      4.287829070400003      7.278579309500020     12.998625474799981
Si      5.940290753400006      9.220707625200022     11.297375620199988
O       5.515704804000007      6.249588565600017     13.077735348899987
Si      9.040630822300002      5.599437807300014     14.532136517999991
O       5.411359861600016      9.169370430200013      9.796697151699998
Si      9.284332453200021     10.853365293600016      8.611487546499998
O       7.771578481900016      5.021274436600017     13.725024205899990
O       4.830709884000017      8.585636134100010     12.253425698499978
O       3.852239684300002      7.593457261300006     14.494049409699995
Si      8.372974365499992      8.118899648900012     10.130134426799996
O       9.318084823200021     11.984149708200023      9.757801499399994
O       5.342583174900028     11.097451052100018      8.009348725999995
Si      6.371917010000005     12.296109664400014     11.538809653899987
O       3.006322884900011      6.652774654499998     12.232493478299988
O       6.169172054200011     10.732141785200001     11.754504079099993
