216
14.831 14.831 14.831
 Si         3.7332250128        5.2756894414        4.8544760423
  O         2.3686020798        4.4423360387        4.8629159197
  O         4.9407948439        4.4467643869        4.2010625891
  O         6.4311938953        2.3269300805        4.5279080182
 Si         5.9740060892        3.4710081452        3.4462660568
  O         4.1968356261        5.6994029833        6.3297410806
  O         5.2769020271        2.9711398997        2.0775379368
 Si         1.0009799478        3.6767437765        4.5664694847
 Si         4.5370561295        2.1607145380        0.9066512763
  O         1.2411579693        2.6308951200        3.3660793641
  O         0.6584816545        2.8778947555        5.9380838229
  O         4.6841993465        0.6378188020        1.3156247536
  O         3.3760372120        6.5841220714        4.0342869902
  O         0.9087349380        0.9910369414        1.3143054308
 Si         0.6165601254        1.2205395740        2.8953198736
 Si         6.8508220120        2.0970942603        6.0943679350
  O         2.9721016678        2.4860254713        0.8199909519
 Si         1.3368149197        1.8005818737        6.9431417200
  O         0.8240841727        0.3340209967        6.4278414146
  O         5.8533122190        6.8285431621        0.7638780531
 Si         1.5711579817        1.9915258065        0.2106743423
  O         5.5332417200        1.6534365326        6.9264577626
  O         2.9554678384        1.8116168235        6.8394352015
  O         1.3136561772        0.0781436215        3.7958824170
  O         7.2652081300        4.2932752270        2.9597017992
  O         7.6633191723        6.8988878111        2.5572481228
  O         7.4986790655        3.4680841400        6.6809140056
  O         8.7412940844        5.8361312264        7.0776039069
  O        14.5873809843        4.6139290054        4.1141523671
  O         7.9076696310        0.9033949889        6.3383401966
 Si        10.0565738629        1.8325255745        0.3451527740
  O        12.5258946725        3.1291444247        4.6025901722
 Si         8.3474155965        5.4810420274        2.9946930508
  O         8.8175726082        5.6666907333        4.5166506879
  O        12.2753383938        4.6990327483        2.5427722589
  O         9.6475333475        5.0213580977        2.1351529662
 Si        11.0426237358        4.4506116253        1.5049580840
  O         9.2976054504        1.1459206373        1.6279415411
 Si        12.6006289001        1.5782535585        4.1573690004
 Si        12.9630385584        4.5681578176        4.0129613462
  O        12.4382873387        5.7629758393        4.9270942133
  O        13.8616763939        1.2393729118        3.2132909947
  O        11.2997610278        1.2331425084        3.3002175654
 Si         9.0032839569        6.6997907112        5.7235983404
  O        12.7009714377        0.7379093062        5.5200608769
  O        11.0340527637        2.8901891298        1.0679377064
 Si        12.0394112840        7.0454767017        5.7942670508
 Si        10.0052211910        0.3913085597        2.8807953565
 Si        12.0410912077        0.4386452523        6.9556070344
  O         9.1447371941        0.2520966926        4.2290998934
  O        11.2950561958        5.1625744202        0.0849991428
  O        10.4716309286        7.3432432825        5.6111910128
  O        10.4516340677        0.3185342409        6.6670359809
 Si        13.9893959099        7.0750593237        0.0292621734
  O        12.2060730007        6.6659204099        7.3382714058
 Si         9.1103335443       -0.0372958472        5.8293951808
 Si         6.4366122116        7.7608703453        1.9409552759
  O         5.0988841213        8.0024220317        2.8015362381
 Si         3.5439189027        7.9465479204        3.2452319144
  O         2.2933056023        8.0630818075        2.2170309105
 Si         1.0645954550       14.1190341084        5.1869921409
  O         5.5154152740       13.4377050570        2.5518490436
  O         4.9442313483       13.1878948616        5.2839149000
 Si         5.2856195858       14.0205277268        1.0813124692
  O         5.0233384375       11.1846015451        3.6439642763
  O         2.3766716585       13.2607460096        5.5207765337
 Si         3.6808399215       12.5884210684        6.1639449430
  O         2.0709171064       11.9449570941        1.2147221972
  O         3.7899415647       10.9947182754        5.9462732575
 Si         4.5304947896       10.1581328548        4.7923650640
 Si         5.6767995181       12.6336738642        3.9170056152
  O         5.8303565102        9.3904137514        5.3464531763
  O         3.3846947662        9.2143066937        4.2145609422
 Si         0.7083609559        8.4523062569        2.3153514229
 Si         0.5250094689       11.4544653554        1.2479149801
  O         0.4876121087        9.8960094244        1.6398535544
  O         7.0074748890        9.2431336156        1.5538863783
  O         7.2613405096       12.5200605691        4.1272511610
  O         4.1980400891       13.1772180972        0.2425439932
  O         6.6678346891       14.1715891027        0.2519824220
  O         0.2548176414        8.4874448621        3.8815223540
 Si         7.2914923364        9.2909455091        5.9987119371
 Si         3.1048792528       12.0405206364       -0.0257217109
 Si        10.4239324403       11.3352445908        0.2566574761
  O         9.8211947681       11.7787529112        4.0230818557
  O        12.3172588987       12.6782806731        3.7046103758
  O        14.9129846860        9.7266516818        6.3710576526
  O        11.1121441890       11.2925650127        1.7349493852
 Si        14.1873547800        9.2716193411        4.9906652348
  O        13.7509134309       10.6452325889        4.2853180418
  O         8.8879628744       13.1969455068        6.0204867773
  O        14.6554313236       13.0948570738        4.9327839340
  O        14.5906627070        7.4102443146        1.4959971542
  O         8.8174149991       11.1118055663        0.5000984736
  O        12.9307737171        8.3199198915        5.3608581280
  O         8.1592871417       10.6189625916        5.6849251465
 Si         7.6040026259       10.0611705937        0.2638064370
  O        10.3799682344       13.7429218702        2.3808531821
 Si        10.9155400629       12.3388516387        2.9700767867
 Si        13.8509812855       12.1875203380        3.8442728895
  O        14.5774625962       12.2791965965        2.3912261135
 Si         8.5358280361       12.0131230858        4.9707928282
  O         7.9837260730        7.9265353403        5.5203293642
  O         4.1259835326        4.0357364713       12.5281658610
 Si         3.2144519471        5.3414625154       12.7186417430
  O         2.1541952958        4.5157715651        9.3762595768
  O         5.4344495616        2.2184543460       11.4546419743
 Si         2.6878560373        5.9970833035        9.7491774187
 Si         5.3803440769        3.0817541908       12.8184195396
  O         3.0380384968        6.0966674372       11.3157436501
  O         4.0363559978        6.1823302502        8.8957237661
  O         4.0434101367        1.5596132335        9.2214545539
  O         1.7402505024        4.9483250376       13.2639550536
  O         1.8114803313        2.4709895354       11.0411449721
 Si         4.6428864584        1.0876569780       10.6379659334
  O         1.7377282288        1.3972119782       13.5247301833
 Si         1.9838207550        1.1348591262       11.9380908978
  O         0.9916448259        2.2297487813        8.4834873064
 Si         1.2423014700        3.2462493136        9.7370404710
  O         4.1355833810        6.2568349666       13.6825315865
  O         3.4682673475        0.5816677670       11.6261363686
  O         6.9099579154        3.6252893974       12.9435806247
 Si         0.3262460102        4.3472838767       13.8141610850
 Si         4.2483582990        2.1647147860        7.7393528375
  O         6.9222044009        6.6707725423       13.3440894678
  O         4.3815656474        3.7325485774        7.9814159433
  O         1.6545611215        7.1770906453        9.3915961595
  O         5.1133057591        2.3861372066       14.2511907920
 Si         4.7444825491        5.2773249553        7.7758477062
  O         6.3287895645        5.4565427729        7.9071284758
 Si         5.4969745349        7.0266527748       14.0529727982
  O         0.6455921464        3.3014891376       14.9879597236
  O         0.9845267630        0.0237887809       11.3737081174
  O         7.4077425085        1.0679626749       13.0964587094
  O        14.7291821680        3.9637839128       10.2194952712
 Si         7.7386064792        4.7159762544        7.7009325238
  O        14.3475364762        3.4573686736       12.7037672720
  O         9.1453806130        2.6402748122       14.0961316297
  O         8.2411749331        4.1971185855        9.1505719602
  O         9.8871389974        4.9295882925       11.1182552258
 Si         8.0940710686        2.5112817066       12.8643179284
 Si        13.5969410532        3.5732734850       11.2820661299
  O        10.4615490102        2.9601256764        9.3990197784
 Si         9.3003538111        3.6783986721       10.2583583852
  O        12.7868107513        2.4016937147       10.4798577841
  O        11.3073756535        6.6587649863       12.5330900028
 Si        11.2926891117        5.7040520415       11.2556632746
  O         8.7342865083        2.6424585704       11.3761491585
  O        12.5135048597        4.7055629808       11.5316628101
 Si        12.0326099684        2.8192169990        9.0796032533
  O        12.5286500969        4.3029903311        8.5703998071
 Si        12.6193482882        5.9381240512        8.6935829424
  O        11.6085768029        6.4342910036        9.8636678384
  O        14.0788513430        6.5140593857        9.0698407325
 Si        11.1366174415        6.5487514917       14.1360802534
  O        12.2767833698        1.6600805619        7.9932596796
  O         9.5464722649        6.8451168661       14.2607814503
  O        10.7818747814        0.6337966523       14.3362739251
  O        14.2514843697        5.5320240006       14.4204270917
  O        12.3830875394        7.4097374700       14.7559648223
  O         5.6858349646       14.7564604372       10.2992257283
  O         3.5537092993       12.6992031208        7.7913810129
  O         6.4254718185       10.8017934291       14.2606801881
  O         1.4857161967       11.1168696013        8.1599565344
  O         5.1899172262        8.5666323886       13.8342786447
  O         2.2182953730       12.2716715689       13.4512982799
  O         4.7760077083       10.3850630405       12.1016840952
 Si         2.7302751947       11.8265420792        8.9115939979
  O         5.4571222541       12.2269847887       10.4682882519
 Si         4.9731947031       10.7047195186       10.5380776902
  O         3.6336568297       10.6885002339        9.6358078438
  O         6.0871314691        9.7223344119        9.9005086982
  O         2.2241160487       12.7739732569       10.1334577785
 Si         6.2830450347       13.4685739988       11.0119668949
 Si         5.0687543865       10.1348960938       13.6586863975
 Si         0.8393700314       13.4227759898       10.6721374136
 Si         0.7375659443       11.6735907796       13.1189422413
  O         6.2655390256       13.6007276376       12.6171685807
  O         0.7436671818       10.1359817039       12.6034134784
  O         0.1675845642       12.5204987355       11.8594327142
  O         3.8618623710       10.6374805144       14.5844263997
 Si         0.1553426608        7.7289164189        9.6260784587
 Si         0.0785192465       10.3772376561        7.8621665022
  O         7.0874093809        9.1597997736        7.5795359114
 Si         7.4324403521        9.7526250875        9.0020495310
  O        -0.0623892481       11.6993121656       14.5624467595
 Si         7.2839333397       14.3720958214       13.6099524258
  O        14.8237793850       13.5930638762        9.3058854185
  O        14.7522517302        7.9921847986       11.2044375656
 Si        14.5547942725        8.8857666878       12.5284320684
  O        14.8258243615        7.9892675466       13.8325628378
  O        10.7116241532        9.3931074940       11.4582643892
 Si         8.6160576849       11.9161646251       10.3195830358
  O        12.5034031208       13.1055670117        9.9761554769
  O         7.9923885765       11.2818595511        8.9703152527
  O        11.9442017555       11.6208352946       12.0277173805
  O        11.0352075375       14.0045928346       12.1262523309
  O         8.4902108454       10.7107374616       11.4486699263
  O        13.7579218406       11.5306736457        8.0782969504
  O        10.1413994045       12.3496138558       10.2157629795
  O         7.8290141022       13.2671130575       10.6345946925
 Si        10.3970005295       14.0471687253       13.6309917927
  O        10.9538662918       10.2214165926       14.0201439805
 Si         8.3163184307        7.4999075348       13.4390071775
 Si        11.6474499683       10.1419675384       12.5470431567
  O         8.6564425795        7.9109612282       11.9345682703
  O         8.6563830563        8.8997783455        9.6412905497
  O         8.7968238297       13.8389771529       13.5798277739
 Si        13.4455200856       13.0238376833        8.6769337420
 Si        11.4121985529       12.8053862768       11.0918414281
 Si         9.1429498000        9.2157042714       11.1506650605
  O        14.6800505200        9.1418641065        8.8912696116
  O        10.8699950315       12.7716922476       14.4941414134
  O         8.1547410192        8.9004185968       14.1685614137
  O        13.0363553765        9.3855442673       12.6078363954
  O        12.7673209749       13.9318171933        7.5195038397
