216
14.936 14.936 14.936
 Si         5.5273855143        3.3136738597        1.8525328486
  O         5.3980337118        2.1447403093        2.9860334012
 Si         5.9428193541        1.2038483953        4.1959345753
 Si         1.1503580152        5.6935433952        5.3821231331
  O         4.8230178114        1.1585953825        5.4037723527
  O         5.6435573889        4.6560620754        2.7440339600
 Si         6.4214323861        5.8823312914        3.4291190682
  O         2.1482835373        6.8026817642        5.9611500216
  O         1.1661883436        4.1604068471        5.8939645118
  O         0.5793439837        1.4906395110        5.8071349702
 Si         1.2402799963        2.7189082317        6.6395817560
  O         1.4847399796        5.7306924432        3.8027946643
  O         6.7246042513        2.9857809322        0.8280812960
  O         4.3241771284        3.5724779210        0.8149047341
 Si         4.3108194317        1.7517332599        6.8641647204
  O         1.8277298340        6.6366968125        1.4000882114
  O         2.8247231058        2.4059658727        6.7985274724
  O         5.6495505127        7.2853601633        3.3145955333
  O         6.7841384427        5.6456826980        4.9764940525
 Si         1.8012650020        7.0645987165        2.9414933911
  O         7.4681407369        1.5800738499        4.6486862440
  O         2.4183196598        2.1579668132        0.2396379389
  O         5.4820049564        2.8209948569        7.1404214138
 Si         1.1368776054        7.3270427134        0.1138255107
  O         0.8913753172       -0.0832896353        0.2358518551
  O        -0.2483894306        6.3862368711        5.7306916253
  O         7.6372643832        4.4906705572        7.0414146232
  O         7.7893116742        6.0467861680        2.6371595245
  O        11.3870514554        4.3977068022        0.2511973004
 Si         8.0698928850        5.6029720377        5.9490691727
  O         9.8977268061        1.9921502203        4.1582346514
  O        12.5347306890        1.9840830415        3.8105300387
 Si        10.0084006661        4.5778801393        1.0857264186
  O        11.6813545823        6.4249861916        4.0734869316
 Si        11.3200542637        2.4146942004        4.7753974074
 Si        10.7003728922        5.1493338196        4.1507925601
  O        11.5248253572        3.9898077968        4.8987402865
  O         9.3756420239        5.3151821411        5.0607738161
  O        10.2993086983        4.6496675218        2.6648633080
  O         9.2959586502        5.9938716552        0.6659553199
  O        11.2766319928        1.6724043479        6.2055917518
  O         9.1926355039        3.2274831320        0.6507846638
 Si         8.8619465785        0.7721237749        4.3895410604
  O         8.3803486278        6.9764933328        6.7283349124
 Si        13.0466377883        0.6086059368        3.1670481154
  O        13.9400523041        0.6776089487        1.8385577106
 Si         8.3340082433        7.0260967694        1.4908229267
 Si        13.8910649074        7.3191949729        6.7758149371
  O        13.9358952335       -0.0861587519        4.3042029113
 Si        14.8405634803        0.0266770423        5.6203132370
  O         3.1608692754        7.8032418415        3.3221395988
  O         6.3683094764       14.6685592176        3.6352359502
  O         7.1348147463        7.6322451394        0.5781719665
  O         3.4913118721       13.6112285324        0.6565056452
  O         4.4814122188        8.0458992546        5.5544588419
 Si         3.2683246264        7.7567961645        6.5671966271
  O         0.6767904584        8.2072487621        3.1559755065
  O         4.4661696300       11.0389964117        6.7225631385
 Si         4.5513604348        8.2423763402        3.9708220811
  O         5.8075814975        9.7870601462        1.3334536729
  O         4.8960280385        9.7963403047        3.7248616257
  O         3.8128826143       11.3699851854        1.9079953283
  O         1.9061089227       12.7766715778        2.9871500758
  O         6.1342115470       12.0107763633        2.8401498867
 Si         5.5942486092       13.2794508870        3.7033346460
  O         4.1545324382       13.6913538268        3.1522124743
 Si         1.2646987353       12.4930153000        4.4830305682
  O         1.0660624016       13.8397824797        5.3918744557
  O         2.0788375900       11.4523404451        5.4752149386
 Si         5.8147195399       11.8546801810        6.4333806241
  O         5.4866485424       12.8549874606        5.2303180319
 Si         5.1976010704       10.7304295451        2.4424461998
  O         6.9709684358       10.7921235550        6.0586777887
 Si         3.2621144547       12.8835856280        2.0983187524
 Si         2.8663225939       10.8306449104        6.7967994880
  O         2.6537680902        9.2141705307        6.9623987551
  O        -0.1899359622       11.9556249912        3.9664897044
  O         9.1158731265       14.7771304691        3.0585894370
  O        14.6122378205       10.3665856710        1.9110716928
 Si         8.5469647617       10.6189082848        5.7270156655
 Si        11.2738334500       11.4931557244        1.4806809387
 Si        14.4803055974        8.7805501130        2.1640495528
  O        14.7834390360        8.1406132477        0.6883515998
 Si        14.1213834525       11.8018304388        2.4600899677
  O        10.5457958010       12.9488724510        4.1917945405
  O         9.2151408179       12.0337659000        6.1434986786
  O        10.3636967011       10.2950337285        2.0020317937
  O         9.2076443766        9.4611997218        6.6358306707
  O        13.1052725390        8.3731332576        2.9300687169
  O        14.4341809716       13.0193500281        1.4207570714
  O         9.0465469795        8.2119477122        2.3225275583
  O        11.4281272293       13.4474434681        6.6249390320
  O         9.2184215281       14.6859214169        5.6336249051
  O        12.9344111453        8.1321993767        5.7179877564
 Si        12.2177112416        7.9449452682        4.2406598416
  O        10.3767478340       12.8537271468        1.5681425341
  O        12.5168496634       11.6992344171        2.4903067582
 Si        14.3337332036       14.4868111221        0.7489701873
  O         8.7179889485       10.2056801583        4.1542004045
  O        10.8979178108        8.8713401820        4.1614918060
  O        11.7677565186       14.6890821121        2.7387361393
 Si        10.1067034186       13.2993856494        5.7017818959
 Si        10.4159682998       13.8333691656        2.8459773085
  O        13.8524335554       14.6873818843        6.8770877437
 Si         9.7404739997        9.3983440641        3.1714546436
 Si         4.6593461596        6.1842855142        8.8670345464
  O         1.8157528208        6.0593556379       11.7940652875
 Si         1.4583252781        5.2366541318       13.1013702251
 Si         3.4356140288        1.2089682777       12.4686276403
  O         3.8989614408        2.6672952799       13.0461637697
  O         1.8985526545        0.9909249483       12.9419054039
  O         0.5794663923        6.2170779005       14.0334547952
  O         2.6597856375        4.6600833823       14.0265798262
  O         3.5908927075        6.0620339505       10.0502056325
  O         5.4869594689        4.8289121145        8.6401191524
  O         3.6565765904        0.9124336690       10.8748440423
  O         4.1708696267        0.7449924760        8.1507680086
  O         0.6525765882        3.9861050931       12.5371172865
 Si         3.3716217263        3.2838374766       14.4909821861
 Si         2.6623156314        7.0626330124       10.9041854910
 Si         6.4985107009        3.7761261510        7.9396220372
  O         0.3997682961        2.8237956968        8.0442154300
 Si         1.3043715946        1.2795410956       14.4315395790
  O         5.6506691458        7.3893662479        9.1241142606
  O        -0.0003868980        2.2416514914       14.4327292407
  O         3.8194217334        6.7224463349        7.6377716295
  O         7.1388999588       -0.0796807011       12.1698794002
 Si         3.8683641728       -0.0455846403        9.5455699236
  O         7.3878684560        2.9005197073        8.9638634287
  O        13.1810823761        6.2180261435        7.7322056808
  O        14.5944002860        1.7409601444       12.0230218554
  O         7.9788967024        3.2460464191       13.2772725943
 Si        14.4970746059        2.9566521778       13.0566916416
  O        14.5116363215        6.7138622625        9.9544072046
  O        13.6850878742        1.5976304645        9.7681835191
 Si        13.6654756606        0.7774662491       11.1586367285
 Si        13.9108156367        2.9025547116        8.8392318269
  O         8.7804162390        1.3123146740       10.5416822671
  O        13.7613961364        4.3203438778        9.6176566222
  O         8.9583981587        5.6206469831       12.5462096576
 Si        11.6938973354        3.3882940558       13.9656811690
 Si        13.3224420604        5.8462187440        9.3093053286
  O        13.1088532479        3.7286613002       13.2686998382
 Si         9.0928910359        4.0256551210       12.3574700908
  O         9.0414475904        3.8026984597       10.7551908253
 Si         8.8299096199        2.6368346172        9.6493500610
  O        10.0367445731        2.4935172812        8.5502615287
  O        10.5419381087        3.5598292482       12.8602707339
  O        11.7849578042        1.8386554176       14.4345311089
  O        11.9460175413        6.3907587630        9.9561020808
 Si        12.0651240128        0.4293517298       13.6984219944
 Si         8.7603003416        7.0192890129       11.8167858564
  O        12.3544796712        0.6638316117       12.1112159930
  O        12.6101785637        2.8985291583        7.8880894754
  O        11.7008378751        0.4169516355        8.3696684004
 Si        11.3491511926        1.8927420615        7.8002850486
  O         7.7924743743        0.9490728850       14.5273093555
  O         7.6225763105        6.8803209190       10.6895629608
 Si         7.9268180161        2.5690624855       14.7769316201
 Si         7.3064290530       14.5017091737       13.7738396477
  O         4.2421069350       15.1711676954       13.4491215030
  O         1.7327281981        8.0429974275        9.9555034782
  O         3.5764104744        7.8913376276       11.9465692763
  O         5.9898220072       13.7773415063       14.4343210179
  O         5.0828110192       13.8518670197        9.7980304416
 Si         4.3644037905       13.7706154121       14.2121901363
  O         4.9783980505        8.5491017212       14.1079255880
  O         5.3154477119       11.2060237591       11.8742319613
 Si         6.9086951308        8.0235007098        9.8129236755
 Si         3.5293895933        8.6883166982       13.3557409099
  O         2.5667967200       13.9453692230        9.3691055920
  O         2.9080001597       11.7768117924       10.8019838580
 Si         6.6412061310       10.7542781799       11.1053242421
 Si         3.7556933019       11.4747763788       12.1570322802
 Si         2.1135809055       12.3922534736        9.5191307237
  O         3.7368874347       12.6973743145       13.1944089360
  O         3.1582897086       10.2062413699       12.9494753221
 Si         6.4230943723       13.1711584095        9.1978377914
  O         0.5181748123       12.3562538332        9.7041277602
  O         2.3998787905       11.5463740896        8.1683502061
  O         6.3818974440        9.2296134603       10.7047188843
  O         6.8031884893       11.7680256174        9.8807714561
  O         2.3158622044        8.1415755249       14.2786389158
 Si         0.1473421036        8.1506672607        9.5279006178
  O         7.2980996037        9.9486528470       14.2760017016
  O         6.2283152180       12.8556801587        7.6378662468
 Si         6.2844238274        8.9275826838       15.0104210632
  O        10.0537791110        7.6345215889       11.1006353905
  O         7.6216895581       14.1904088907        9.5528029260
 Si         8.9653883350        8.2008412240        7.5980467246
 Si         8.2122628807       14.8071717321       10.9276080890
  O        11.8733362938        9.1344059844       10.0417999041
 Si        12.4990431139       14.1524957366        7.6099468364
  O        12.3670030086       10.0350432254       12.4606635153
  O        13.1847453686       11.5801146048       10.6899855049
  O         8.2909624127        8.1322097920       12.8604856522
 Si        11.0514991944        7.7433161614        9.8516286261
  O        13.2815755359       14.5907056820       14.4451468951
  O         9.4626654672       13.9403384793       11.4516848615
 Si         8.4266409723        9.7056386855       13.1619509523
 Si         9.8613276597       13.4566877773       12.9367137198
  O        14.3625334128        9.2909441872       10.4570468504
  O        14.0993257780       14.1869794063       10.8693787966
  O        14.6984494647        8.2767290280        7.8934405511
 Si        11.2862993276       10.7993761863       13.4131965129
  O        13.0314034124       13.1128297927        8.7071690523
  O         8.4720307582       13.3609027340       13.7803977857
 Si        12.9518310340        9.9983961292       10.9168473712
  O        10.7856058653       12.1652553957       12.7167367773
 Si        13.9471275681       12.8222399622        9.9979658526
  O         7.8894155630        8.6336365725        8.7093783217
  O        10.7130514603       14.5251424715       13.7760839306
  O        10.3076399880        7.7935085190        8.4072906403
  O         9.9406230042        9.9387366610       13.6113849865
  O         8.0321870815       10.7091906144       11.9476718360
  O        11.7937279913       11.1310593265       14.9230631609
