216
14.928 14.928 14.928
 Si         2.1342893421        4.5289894664        3.5619036826
  O         3.4892543308        4.3951547641        2.6526280188
  O         1.0749898336        3.4920865181        2.9078008675
 Si         4.9135643892        3.7471707048        2.1544277920
  O         2.4119802445        4.3136787674        5.1691885228
  O         5.9812786005        4.1431094841        3.3096195754
  O         1.4084440374        5.9597878509        3.4798347764
  O         3.9819838515        2.3945238276        5.3843780016
 Si         3.6997003685        3.8184033071        6.0489507273
  O         4.8963367596        4.8170372388        5.6422758540
  O         4.8049245351        2.1448945055        2.0722231458
 Si         5.0425057374        0.6165382689        2.4725987299
 Si         6.2595509064        4.7303979006        4.7856742495
 Si         3.9103670471        0.8074471204        5.3037419732
  O         4.3994816479        0.3231952402        3.8838078983
  O         5.4661174818        4.1473028954        0.6718042074
  O         6.8063692885        6.2295298772        4.6461985674
  O         2.3905749992        0.2542275843        5.4052385831
  O         0.3296567166        1.1749141818        6.8769679714
  O         4.9704864050        0.3075167712        6.3986044027
 Si         1.5092906549        0.1214668452        6.7552573157
  O         7.2989165500        3.8164211834        5.6343570181
  O         6.6233733030        0.2391129672        2.5628818262
  O         0.1653604253        6.2840083075        7.1979414041
 Si         0.7900110988        7.4179718938        3.6983781297
  O         7.6282517195        0.1711134123        5.9788932017
  O        14.5119468053        1.4970275356        2.0683773089
 Si        14.5889190314        2.7346695387        3.0731281596
  O        14.5953391617        2.1555245057        4.5569216685
  O        14.6707801857        3.6385587461        6.7069114731
 Si        14.3897267304        0.7383053391        0.6661621424
 Si        14.2821090670        2.1916777915        6.1178320396
  O        13.2655347633        3.6437981374        2.8212462019
  O        10.7881664641        4.6438093867        2.4918175008
 Si        12.1036716645        4.0421507028        1.7553328595
 Si        10.4920368857        5.8727322583        3.4922410164
  O        10.7020340934        5.4005660113        5.0477281993
  O         9.0303199467        6.5520344533        3.3300439963
 Si        11.5340229691        6.0791263608        6.2702902737
  O        10.2056325167        1.0684299708        5.8083127951
  O        12.7518932770        1.6674419014        6.2392686543
 Si        11.7109506481        0.4765639189        5.9028669555
 Si         8.9118936506        0.8012414640        6.7490048124
  O        11.5350118123        2.7911838957        0.9077368075
  O        12.8475687392        5.1442488838        0.8248899574
  O        11.6052550192        6.9721449534        3.0857989707
  O        12.6897675968        5.1520314625        6.8756675694
  O        12.2730313909        7.3675386512        5.5630170516
 Si         7.9389865685        7.2982533073        4.2886107595
  O         8.5345110632        2.2513522972        7.3789507755
 Si         7.6627051138        3.6130053285        7.2056066502
  O         8.4415873250        0.3268708451        0.7476552398
  O        12.8534809401        0.6712915192        0.1594812670
  O         0.9060508496        7.8862561079        5.2314571463
  O         4.3312502572       14.5336821440        1.4304090709
 Si         0.5102885112        7.8173738549        6.7927515634
 Si         6.2947125874       14.3299642887        6.4823218331
  O         3.8899891323        9.5337523118        1.4014693481
 Si         2.3555267326        9.5796602094        1.9747902330
  O         1.6605089837        8.2946600606        2.6552500875
  O         3.5813056654       12.4377507591        4.4909890038
 Si         4.9204767890       11.8746553190        5.2443135054
  O         5.7061028151       10.8643634923        4.2090807305
  O         2.3214857410       10.6819887106        3.1232175368
  O         1.1660962687       11.6878214961        5.2283528290
 Si         2.1021956557       12.0159984645        3.9577714013
  O         1.2556347580       13.0279585054        2.9928856388
  O         5.9929810242       13.0412290156        5.5587125380
  O         1.4929277913        9.9481202387        0.6641390345
  O         6.5516369823       13.4340620716        0.5768160822
  O         4.4902770636       11.2732097902        6.7026204741
  O         0.8368099162       13.6134443275        6.9589856173
 Si         7.1723140022       10.1634525675        4.1819919310
 Si         4.5730076745       10.4543265065        0.2392540065
  O         4.4092879366       12.0178712374        0.6546724002
 Si         4.9677151459       13.5025256481        0.3735773959
 Si         0.1415950645       12.3509924469        6.2790362011
  O         7.2180031109        8.6168779010        3.6492257123
 Si         0.1978787013       10.7432197096        0.1613575333
 Si         7.5112506082       14.2462395602        1.5862208419
  O         6.0491429307        9.9447392422       -0.1755742921
  O        14.1007279288        7.4727356016        3.4786304095
  O        12.0326572466       14.5928291928        4.5489482040
  O         8.7151676665        7.8077031664        5.6387167284
  O        14.9352919730       14.1723598954        0.9171640951
 Si        14.8393453167       13.0475028669        2.0741413042
  O        12.2606303459        9.3869442937        3.9057777268
 Si         8.7098223658       11.4670422083        2.0416504602
  O        11.6168548641       11.9306378746        4.3149316942
 Si        12.7119256665       13.1458205826        4.3122178774
 Si        11.6255759107       10.4400015008        4.9743284503
  O        14.5989071596       11.6054688553        1.3986834089
  O        13.7749886933       12.8549493312        5.4765593183
 Si         8.8600955202        9.3414082396        6.1915076459
  O         7.9517629220       10.2077048065        1.3387116242
  O         8.4591689452       10.9531915213        3.5556233111
  O        14.6893243095       11.2957385280        7.4383379606
  O         7.5476493492       10.1247294802        5.7298078376
  O         8.2975100166       13.0227863549        2.2492246682
  O        14.1816724492        8.7097791260        7.2993068176
  O        10.2031421806        9.9541297072        5.5515655423
 Si        12.6112501284        7.8141296148        4.0131348280
  O        13.5038188381       13.2765640038        2.9253489450
  O        12.6051137185       10.4518258489        6.2212131830
  O         9.9634877939       11.6068045921        0.9916247094
  O        11.7809579762       14.2588724401        7.0459930644
 Si         3.4654921583        6.3358133506       12.7309059983
  O         4.2142668461        5.3914072316       13.7705496680
  O         4.0709924264        6.0514435419       11.2707248696
  O         4.7245160909        1.4107093804       12.2687788360
 Si         4.4932160612        6.6752869144        9.8483923138
  O         1.9073463943        5.9653385268       12.8547599825
  O         4.9775080249        5.4676790186        8.9437071424
 Si         5.6246263054        4.7002902232       14.0801117170
 Si         0.9778916836        4.6506662763       12.8590705992
 Si         4.9581500252        3.8739978330        8.7710731265
  O         5.9540283902        3.6448009109       12.8514675145
  O         4.9631777814        3.2281388974       10.2833494979
 Si         5.6437778520        2.5751258323       11.6303155240
 Si         1.5045637467        1.7738857498       13.4577711881
  O         2.8453920049        1.0709714787       14.0172196293
  O         1.8216385316        3.3232338092       13.1854742323
  O         1.1544230229        1.0867921862       12.0270877349
  O         6.7227097268        5.8854846066       14.1082293588
  O         6.9813534606        1.7946974316       11.1231025814
 Si         3.9019563806        0.2909925750       13.0661498470
  O         6.3060587328        3.3952362891        8.0454130181
  O         3.7233425883        3.6456756706        7.6870895892
  O         0.3356590138        4.5567808363       11.3855756242
  O         2.6429343423        0.3264717000        7.8761235264
  O         0.3237683520        1.5632895411       14.5127592007
  O        14.7652068066        4.7162229575       14.0006094242
 Si         7.6739286926        6.9333556764       13.3483689699
  O        10.3702282979        0.9160519775       14.1781603728
  O        14.1801723739        4.6503348619        9.0180586037
  O        12.1952501717        2.5773871480       13.3552998600
  O        12.8470554610        3.6588052180       11.0299777829
 Si        11.6646911330        3.0045928027       11.8964248399
  O         8.7985894406        5.9746846326       12.6767599260
 Si        13.9017720478        4.7860092342       10.5733783966
  O        13.3531310149        6.2909233930       10.8711734035
  O        11.1956398485        1.6443683190       11.1875354678
  O        10.4585673755        4.0740992875       12.0334021912
 Si         9.8707147946        5.5041539760       11.5585039068
  O        10.8700257111        6.7937705957       11.5228296014
  O         9.5390952234        5.2140123902        9.9926943053
  O        12.4521904151        5.7974181134       13.2738356045
 Si         9.3458088296        5.9697119971        8.5643662135
 Si        12.3752576663        6.8432749024       12.0348967939
 Si        13.5662543108        5.6893289423       14.4417165837
  O        14.2608360192        7.1546327799       14.5083967608
 Si        11.7051436982        1.7179559597       14.6301169946
  O         8.3816829188        4.9757054784        7.7203059859
 Si         7.6598889131        0.3393874839       11.4065025297
 Si        10.7375666938        0.1360112362       10.9174534839
  O         7.9556707455        0.3316306593       13.0172958871
  O        10.5869927733        6.3172964278        7.5641966335
  O         9.1286067033        0.1594237931       10.7762145620
 Si        14.1789384485        4.9738780692        7.4508840936
  O         8.8614683080        7.4102055037        9.1199869085
 Si         9.0209215948        0.0176956092       14.2040114398
  O         3.2296292736        7.4685893548        9.2957061342
  O         5.7180928134        7.7119853019        9.8696208702
  O         6.9592115874        7.6314186907       12.1064942697
  O         3.7281497010        7.8889488267       13.0244928601
  O         4.8096552761       14.1750681591       13.8552196149
  O         3.0526456985       14.2612236984       12.0988303181
  O         6.4844827849       14.0109528824        8.0515609107
  O         1.6739835012       14.3357565011        9.9567977669
 Si         1.5733217006       14.5383599555       11.5308624078
  O         4.3912057240       14.4310143387        9.6212976220
  O         3.8076309057       10.3707235747       13.7684252441
  O         3.4797321346       10.0493906949        8.7905088181
 Si         6.4209373806        8.6244581835       10.9790235638
 Si         2.9401529000       14.1342022148        8.9848190998
 Si         5.7821562410       13.6126931777        9.4496755728
 Si         3.9082217758        9.4092572794       12.5101048471
  O         2.6643430695        9.8648029417       11.6115533362
  O         5.3001308060        9.5535813934       11.6885992358
 Si         4.0984920865       11.4549700245        8.2735787933
  O         5.3248957675       12.0334556170        9.2151740114
  O         1.1595981940        8.9707987505        9.8697683514
 Si         1.0993114630        9.5912005961       11.3598552052
 Si         2.4458276465        8.7997171395        8.8742484148
  O         2.9815333952       12.6269335019        8.3812576181
  O         6.7215841591       14.0947345700       10.7028329230
  O         0.5009115490       13.5270624214       12.0981128460
  O         0.2455594148       10.9591942693       11.3671927078
  O         0.4959896556        8.6281043674       12.5232934571
  O         0.5857700007       11.6900605479       13.8554314126
  O         1.8227522968        8.4564696185        7.4516387236
  O        11.5299731157       11.7011391842       10.7901124513
  O        12.6032457992       10.3601688856        8.7912055934
  O        10.6923181175       12.2056716472        8.3878315407
 Si        13.5291161651       10.1712335325        7.4834233394
  O        11.2670344173       14.0085104404       12.0367041367
  O        11.3511809579       14.5118783852        9.5420267030
 Si        14.8360053101       12.1080207763       12.4598856691
  O        13.2707866114       12.3514872070       12.6068351435
  O        10.2064177706        9.7937340817        9.7051933769
 Si         7.6479186399        9.7287903511       14.7593840007
  O        10.9479437068       11.6871546491       13.3567217072
 Si         8.8642878480        9.0166042643        9.2518414259
  O         8.0419311017        8.1964759963       14.3450877927
 Si        14.1647708725        8.4513264860       13.5416701237
 Si         9.6830928290       11.8385577017       14.3182321109
  O         8.7204844659        9.5332215774        7.7525967206
 Si        11.7394657403       12.4553831677       12.1819688765
  O         7.6498853217        9.3925560058       10.2669739581
  O        14.0184242269        9.7133026828       14.5174962944
  O         9.2099561473       13.3548295549       14.1026169548
 Si        10.7601745044       13.8332665810        8.2098927894
  O         9.3704571841       14.5846468522        7.8162673650
  O        12.8531963144        8.2795350221       12.5943393125
 Si        11.2395066084       11.0078780163        9.3844347269
  O         8.5300313959       10.7725625225       13.8595802428
