216
15.069 15.069 15.069
  O         2.9096177930        2.7436793083        4.9596057888
  O         2.5972127367        2.1998816927        2.4336295667
 Si         3.8357478562        1.9613626421        1.4470526905
 Si         1.8382029397        2.4043102969        3.8280082671
  O         5.2668966666        1.5681565738        4.9394068999
  O         5.1034387782        2.8305928764        1.9611405241
  O         1.0927526568        1.0252591483        4.1605640183
 Si         4.4565405702        2.9279717019        5.2769888536
  O         5.0194807380        4.2345132554        4.5452793008
 Si         6.3449318598        5.1360174985        4.4188960111
  O         6.0425917708        6.7026430205        4.4843130434
  O         0.7827336967        3.6042608741        3.8578808350
  O         1.2671752591        4.7882459283        1.6408756487
  O         6.8269454702        4.7773966886        2.9138676531
 Si         6.4930820465        3.6584743973        1.7676151445
  O         4.5502179058        3.2919621924        6.8269251129
  O         4.2381301951        0.3927082517        1.4085006448
  O         7.2981355285        4.8616396039        5.7294706113
  O         3.0524876913        6.2552955325        0.3981441650
  O         6.3536259759        4.3960598164        0.3229704816
 Si         7.1346492423        5.2683085756        7.3156015710
  O         1.8096338762        7.2963220694        6.1969253885
 Si         1.5984783858        5.5916781400        0.3047952538
  O         0.4726234424        6.7410622640        0.1552243185
  O         3.3016164021        2.4277772066        0.0141082623
 Si        15.2044225655        4.5452571186        2.7400913980
  O        14.9177213433        6.0256103220        3.3753236785
 Si         9.2698740217        6.3676167937        0.0771611660
  O         7.6975871766        2.5881511274        1.9631481228
  O        14.0493646998        3.6004153243        2.0399630468
  O        11.2206629989        5.7361322945        6.6694981077
  O        14.1956452698        0.7818911481        1.7981518105
  O        12.0115642791        2.1151368882        1.2593025778
  O        13.0420305236        5.9690456637        4.9453129549
  O         9.6540177616        5.8994962799        1.5754868717
 Si        11.7507813101        5.0991653307        5.2775447589
 Si        10.5486395827        6.4699721117        2.7928096327
  O        10.7539963432        5.4016975884        4.0032993966
  O        12.1542807007        3.5440652541        5.5558389986
  O         8.3967136064        1.8065626345        4.4699199409
 Si         8.4134954058        1.4501804846        2.8687590889
 Si         8.8340712229        1.3819710999        5.9852106508
 Si        11.8522220220        2.2679933662        6.5438020842
  O        12.7000672877        0.8768990867        6.2736981980
 Si        13.6210161518        2.2362040926        1.2544649131
  O         9.9105184733        1.1781798378        2.3442497169
 Si        14.0808524481        7.0311782613        4.3628901273
  O        10.3012584233        1.9514982046        6.2820437839
 Si        11.0349546898        0.8196653104        1.2579756033
  O        11.9308637516        6.9068089212        2.0447396613
  O         7.9267331464        1.8801578831        7.2284416734
 Si        11.2619376132        7.2142247467        7.3468958071
  O         7.6800908809        0.0596520675        2.5858106083
 Si         4.9189767681       15.0439626239        4.9888570752
  O         5.0249399764       14.5255593070        6.5009403331
  O         3.4084391677       14.9093243467        4.4746922797
  O         3.6002752002       12.9468168959        0.5503234256
  O         3.7778894001        7.9312001597        4.8643301835
 Si         1.8249610875       14.7587136539        4.6530149199
 Si         5.3316752091        8.1247912863        4.5873209715
  O         1.4110589438       14.5991197246        6.1938825967
  O         5.8757755919       14.1290290049        4.0903002230
  O         6.4272449188        9.7307372991        0.9466159309
  O         2.4969436283        9.7132826043        6.6944805119
  O         5.6524037390        8.8801865521        3.2114764405
 Si         2.4504370599        8.6099384639        5.4695192462
  O         3.6191250300       10.1102432716        2.1908803938
 Si         5.0493228275        9.3222618084        1.7950368264
 Si         2.0226883618        9.8958352896        2.6031344979
  O         1.8643313920        9.3520122246        4.1476179013
  O         5.8024422255        9.0269885277        5.8118701828
  O         1.2681694987        8.8000799843        1.6518593148
  O         1.4236439163       13.5027063698        3.7672400551
  O         1.1753684539       11.2942676664        2.4419352373
  O         5.9679067343       13.5047119577        1.4954410387
 Si         6.8453156769       13.7949729229        2.8421554861
 Si         6.7368239690       10.1608326974        6.4372755932
 Si         4.7244947596       14.1191934901        0.6383851940
  O         0.7758704788       12.2408030945        7.0551927380
  O         4.5495075561        8.1493037934        0.8702488093
 Si         0.3524868290       12.4165826472        3.2965793439
 Si         0.2369393572        8.3137868004        0.4875665765
 Si         1.4840826519       13.6487689188        7.4857857809
  O         7.3024483670       11.0584600587        5.2478595208
  O         5.9672100316       11.0658594901        7.5341709432
  O        14.2123954047       13.2509083409        2.5976457403
  O         9.8941156581        7.8476532066        3.3829651294
  O        12.3184651506        8.2352801856        6.6844581288
  O        13.5676607449        8.2491968096        3.4450310521
  O         8.9649623037        9.5021707253        1.5839365778
  O        13.8963691172       10.4417862964        6.5954118125
 Si        12.6935811162        8.3414289226        2.0972229994
  O        11.5439371367        9.4912219426        2.2673801073
  O         7.8552251851        9.3465064325        7.2170918151
  O         8.0883864907        7.5209514691        0.1636768254
 Si        12.6510574272       14.4108290121        6.8754380185
 Si         9.5881328574       13.5708213032        6.6330227917
  O         9.8856644983        7.9353254109        7.0605836992
  O         8.7962764383       14.8436189410        6.0489868729
  O        14.5956696817        7.9321619682        5.6278292949
 Si        13.5545538449       14.3421194029        1.6045018696
  O         7.8472567618       12.5633438178        3.2282939199
  O         9.4221282693       12.4700057243        5.4819235287
  O        11.9432325611       14.5999770014        1.7268072510
 Si        14.5130828378       11.8922218435        6.1555829260
 Si         9.9923215744        9.3724467728        2.7967426348
 Si         8.5385462942       11.6624722049        4.4074127203
  O        13.8150514408       13.6658917665        0.1511676589
 Si         7.8839952903        9.1351335698        0.4640292745
  O        13.7403424405        8.5575966852        0.8748331093
  O        13.5740587151       13.2416443312        6.2105996698
  O        11.1415361623       13.8987545850        6.8210783843
  O        14.8370327223       11.6854805065        4.5991067855
 Si        13.8154799604        8.8202840847        6.7535398439
  O         9.5557417104       10.5212736764        3.8413444806
 Si         2.7268561556        1.5497635705       11.5468205186
  O         4.4093206403        4.1642829529       13.5751089280
 Si         5.7410980387        4.9602666317       13.9824553510
  O         1.3958094789        1.7209673072       10.6000169735
 Si         3.0005334296        3.4672876376       13.9013260416
  O         4.0967426880        1.7943377331       10.7603895188
  O         6.2799749256        2.1198890271        9.2559308463
  O         2.4984317821        2.6739009576       12.6359194529
 Si         4.6696753429        2.1896009203        9.3269514108
  O         3.9920864672        1.1070832667        8.3079424540
  O         4.2303918676        3.7474807763        9.1947008189
  O         6.8538737623        4.7887454177       12.8042450770
  O         0.6917860207        6.3425973417        8.4852230039
  O         5.2546947574        6.5163036418       14.0512165684
  O         1.7895324978        4.4945054111       14.2075866912
  O         3.0560392371        0.1543319834       12.3163361244
 Si         4.0095210659        7.3018472334       14.7223123769
 Si         4.2923608773        4.5430942780        7.8084198498
  O         2.9753594782        5.4141872089        7.6068477967
 Si         2.0454678487        6.7103254470        7.6849135660
  O         5.5643931969        5.4966337377        7.6198390956
  O         7.7719685803        6.6751378175        7.6858721992
  O         7.7624901674        4.1586409293        8.3174592966
 Si        14.8418990405        1.8705086795       10.7653027454
 Si         7.7215664453        2.5722363882        8.6859541471
  O        12.0820279494        2.7454227842        8.0692771282
  O        14.4492336530        2.2884571633       12.2599685433
  O         8.7927825118        2.2016548558        9.8672077842
  O        11.2982722729        2.4337631650       10.5938219811
 Si         8.4762031842        4.8939330920       12.7868395433
 Si        13.9273475567        1.3653510847       13.4526764868
  O         9.8909648873        1.1701704924       12.2558232766
 Si         9.7752811833        2.3856933986       11.1712314827
  O        11.9388665338        4.7103976163        9.8826407461
 Si        12.1004104085        6.2767071277       10.1581657020
  O         9.1904426966        3.6749233132       11.9996559791
  O         9.0284262703        6.2952549764       12.1603618300
 Si        12.3455676251        3.1805309643        9.6014222208
  O        13.9334984066        2.8862104013        9.8693039885
  O        12.4081063203        0.8679318116       13.1892134737
  O        11.3868081737        7.0642150596        8.9454792245
  O        11.5395190196        6.7371129538       11.6065551209
  O        13.6611976002        6.5887211051       10.0456036237
  O        14.2734469804        0.3865734832       10.5184286502
  O         8.8557703368        5.0125818753       14.3642399094
 Si        10.8753170833        0.3467198749       13.2705448267
  O        10.5081822656        6.9125364858       14.2075961787
  O        14.0560304555        2.2818897361       14.7689026577
 Si        10.3375400133        7.1793187019       12.5950964602
  O        10.4374765411        0.5472227700       14.8333360555
 Si        14.8342589519        7.3778905435        9.3233452388
  O         2.6748451466        7.9241839856        8.5515553761
  O         5.0055783494       14.5249123275       14.1431518408
  O         0.6307388846        9.1027569747       14.2027550923
 Si         2.6077065844        9.5257849316        8.3299290579
  O         5.4192759152       14.2044977762        9.0245301904
 Si         4.2166047451       14.1706161547       12.7495349032
  O         3.1389315380        8.2485636805       13.7325070073
  O         5.3381635313       13.9702684348       11.6200887830
  O         3.3970252753       12.8023496122       13.0206001587
 Si         2.0752099391        9.4713556300       13.5532825764
  O         5.4193644521       11.8595216544       10.0537580733
  O         6.3700132332        9.5035111113        9.6508041817
 Si         5.4349939222       10.6484571615        9.0139376079
 Si         5.9429423416       13.3574598820       10.2691577958
  O         1.8805007236        9.8114890030       11.9923358052
  O         2.5942641677       10.7691375537       14.3735002991
  O         1.4931055022       10.1958725279        9.3213099411
 Si         0.8415090252        9.7279653504       10.7470114697
  O         3.9615083748       10.1258057091        8.8638871723
  O         0.6437742088       14.2849175002        8.6927075680
 Si         2.6815535848       12.3787683693       14.4041327591
  O         1.2459844172       13.1047690867       14.5258617447
 Si         4.3344741372       14.6375829593        7.9435360455
  O         3.0408653526       13.6462285805        7.9411982626
  O         0.4775591648        8.1721039651       10.5241279569
  O         7.9945383391        9.8014678790       11.6774708915
  O         8.3798938657        9.8902416943       14.2037191633
  O         7.5532026985       13.3527369772       10.2790868887
  O        14.3650021506        8.4812410145        8.2334814912
  O        14.9207368660       15.1522060765       13.4982171592
  O         8.5454210049       11.0393131579        9.4931035093
 Si         8.5293127469        8.0616050614        7.8702309288
 Si        13.8366102390       11.9732881702       11.4849971986
  O        14.5967699416       10.5880377296       11.1464031662
 Si         8.8240192462       12.6186283082        9.5894700954
  O         9.8892415595       11.3872435035       12.7048381002
  O        10.8373132911       13.8430942358       12.8647202777
  O        14.4402550601       12.6363386449       12.8192479861
 Si         9.1356601591        9.9713613183       12.7978409830
  O        14.1198856533       12.8808402872       10.1964207135
 Si         7.9181291117        9.6742607922       10.0859800934
  O         9.0272190908       13.1214087824        8.0753940794
 Si        14.2985382739       14.2748627238        9.4496683078
  O        10.1212246124       12.8736385018       10.5163245290
  O        10.1865706575        8.7802227812       12.4842271927
  O        13.1043040642       14.5213914490        8.4102054754
  O        12.2422758105       11.8526496832       11.6956430667
  O         8.7050876584        8.4110603210        9.4453906657
 Si        10.7812918760       12.5055599236       11.9548123892
 Si        14.8807623516       13.6218024767       14.0063778506
