216
14.885 14.885 14.885
  O         2.1405473700        2.8102778972        4.8068028933
 Si         6.6889361937        2.7507976977        1.4335513879
  O         4.7788620343        3.1517019456        5.3769893828
  O         1.0822660971        3.2318087128        1.4002634372
 Si         6.1997510235        2.5995382405        5.9801277951
  O         5.6293689205        1.4874176201        1.4086030949
 Si         3.2326281859        3.5372592824        5.7595356248
  O         2.8986877886        5.1373475474        5.7894945102
 Si         6.0616544398        5.7411449250        1.2699857574
  O         6.2890368419        1.0020655417        5.8712031340
 Si         3.1753226767        6.0955111009        2.0052504764
 Si         2.7593904639        6.4317297285        4.8394578399
  O         5.8642519045        4.1384162522        1.3267681855
  O         2.4010234071        5.7874369419        3.3949601069
  O         4.7854008547        6.3671624984        2.0639389452
  O         3.0496886556        4.8859469749        0.9775690541
 Si         4.2515840179        1.0371301500        0.6117680230
 Si         2.3551667970        3.5430997415        0.4880789224
 Si         0.6553915757        2.1425655196        4.8139929882
  O         4.2174177879        7.0413878448        4.5463213639
  O         3.3141023377        2.3118716784        0.7375301577
  O         0.8196442269        0.5616892808        4.6369337345
  O         2.9727677758        3.0462895918        7.2648074516
  O         2.3207927126        7.3577090019        1.4929926002
  O         7.5196848440        3.1412917116        5.2103483427
  O         6.2864045086        3.0611021088        7.5252500315
  O        14.6463349911        2.8082720096        3.6395092300
  O         7.5045260570        6.0212951670        1.9737270909
  O         7.6895667215        2.8166267082        0.1716691697
  O         7.6768384965        2.7304414459        2.7057070270
  O         7.7619454352        7.2869490583        7.1119693392
  O        14.7265805425        2.3220534205        6.2003791198
 Si        14.6197728125        3.5325992675        2.1991522210
  O        14.4648630626        5.1231711935        2.3937110901
 Si         8.5843913990        2.7731815556        4.0349235767
  O         9.7498796503        6.2837441666        3.5847687048
 Si        10.1683243106        5.2658625048        4.7474125049
  O         9.8314869065        3.8083216708        4.1330470154
  O         9.1765673444        5.5292270639        5.9531537019
  O        11.6559651581        5.4618258002        5.3745236180
 Si        13.0090681842        6.1529486939        5.9811962081
  O         9.3460559625        1.3605857400        4.1288325829
  O        13.8878564523        6.3732606268        4.6246865343
 Si        13.8300156948        6.4748751799        2.9952493442
  O        10.0055470361        0.8242301888        6.6058530415
  O        13.4805521147        2.8929914458        1.2430440748
  O        12.3230429346        6.6102169142        2.3946803016
 Si        11.5649344893        6.8637852546        0.9800813795
 Si         8.9125935975        6.7376632469        2.2921638538
  O         9.9803235055        6.5311388401        1.0835002276
  O        13.7209290437        5.2107518200        7.1135952533
 Si         9.7260769242        0.1820204706        5.1438153731
 Si         8.7827912214        6.0810999479        7.3743995398
  O        12.4717500836        1.3282695478        7.2615832764
  O         3.3068956554       14.6500679797        1.0768797437
  O         1.8297858125        7.6945416807        5.3804010045
 Si         6.9242544113       14.4155357156        5.9814105482
 Si         1.3751798261       10.9126046206        0.5512958792
  O         5.8758426946        8.4252112461        5.7168840800
  O         1.9883599296       12.3242627329        0.9920289631
 Si         1.8228212446       13.9294710829        1.1365477019
 Si         1.8737023029       12.2137296525        6.0987481741
  O         5.5532742955        9.0881194524        3.2293931941
 Si         4.7973154094        8.5339207545        4.5379800108
 Si         1.9228245900        9.3455677227        5.1007587454
  O         3.4951689339        9.5103287842        4.7207565680
  O         0.9084602665       12.8194260205        4.9445264543
 Si         4.9526056283       12.1282825569        5.2744721433
  O         5.3032155298       11.5743215818        3.7889453012
 Si         6.2111883194       10.5449318327        2.9307752665
  O         3.4051741988       12.4709740755        5.6196694916
  O         5.7909199118       13.4811817031        5.3735629066
  O         1.6585911389       10.5710610757        6.1892292220
  O         6.2047717618       10.8404118565        1.3502118636
  O         5.5233201208       11.0614141402        6.3389357900
  O         0.8365315293        9.6707038968        3.9520912581
  O         1.0702217623       14.0605546892        2.5612461124
  O         2.4921640997        9.7613244529        0.5814847454
 Si         6.2536391088        7.8170021117        7.1590532064
  O         0.1664975166       10.3314579493        1.4959162789
 Si         0.3800294611       14.0331825638        4.0124947469
 Si         2.4685354258        8.2163584377        0.1588814626
  O         0.8193284745       14.5558016946        0.0001309957
  O         7.1912531231       14.0604852924        7.5192632384
  O        10.4014400593        9.8283562536        3.5495447530
  O         8.3475381986       14.2151862151        5.2232184734
  O        13.1486599669       10.3404809021        7.4491618790
 Si        10.8873563669        9.8435199821        0.3626595879
 Si         9.0565379691        9.7589199115        2.7028880917
 Si        11.8508318816       10.3028323352        4.0177228233
  O         8.5154795999        8.2629488036        2.5608477029
  O        11.8987483143       11.8982789395        3.8724170445
  O        11.6518651034        8.4518626782        0.6616884150
 Si        12.2190667623        9.1088333987        6.9239126369
  O         9.5778097528       10.1735881709        1.2380373980
  O        12.8143236559        7.6133947012        6.7003600131
  O        14.6348824375        7.7876225706        2.4853393026
 Si        14.6463649992        9.3895699628        2.7682895428
  O         7.8033492178       10.5887244944        3.3077820949
 Si        12.7970859928       11.9294838218        7.5101915882
  O        11.0130887494       14.2265414330        4.6393433475
  O        11.8175917906        9.6783382372        5.4901245232
  O        11.9098438260       11.0778134215        0.5784066555
  O        13.6367576890       13.8992082310        3.9721753024
  O        12.6605026373       12.7324818579        6.1217526874
 Si        12.3074070656       13.2408182444        4.6401300387
  O        13.1431076706        9.7538956881        3.2293814361
 Si         2.7524783696        1.6483399875       10.9410444358
  O         3.9724872807        2.2289557728       11.8141263039
 Si         5.1855476577        1.5441294482       12.5974447003
  O         6.2148337817        2.7195334957       12.9160672814
  O         1.4768007941        1.8109585519       11.9207491217
 Si         2.4946624924        3.8078613582        8.5975862412
 Si         4.8524694334        5.8252104889        9.0492577188
  O         5.9533611543        4.7167176026        9.5094142188
  O         2.4946199966        2.6243408262        9.6899960527
  O         3.4801505007        5.0390246304        8.8571839610
 Si         0.9673245851        3.0990402478       12.7514780438
  O         2.0479204298        3.7057474877       13.7962108436
  O         4.7110371669        0.8199241360       13.9625034066
  O         1.0743727157        4.5415370919        8.4225379472
  O         5.8636908774        0.5093766350       11.5783759964
 Si         7.0481539019        3.8326951415        8.7141384250
  O         4.6194923690        6.9514371329       10.1464508850
  O         5.3004841897        6.6106730261        7.6896469731
  O         0.5703417358        4.2211515409       11.6656524729
  O         3.0615559909        0.0803238495       10.5889361938
  O         6.0336584958        6.3667281672       14.6361044454
  O         0.0881892837        6.7891673496       11.7536974895
  O        14.8036210062        0.3331849885        7.9359930318
 Si         7.7141516576        2.8856998576       13.4617340227
  O        14.6209877310        2.6549804006       13.6577750981
  O         7.9475878724        2.8074384918        9.5994053212
  O         8.2004619518        4.2303515237       12.7357007727
  O        13.8962778075        5.2803492912        9.8173088564
 Si        14.3409681792        5.3609728707       11.3769636068
 Si        14.3511852058        4.5084160131        8.4559129549
  O        10.4185089141        2.4951891868        8.5965470974
 Si         9.3226260852        5.1033219793       11.9746559811
  O         8.7726245315        6.6185766753       11.7284044911
 Si         9.5585751706        2.8997237380        9.9188976888
  O        10.0912577114        1.8245011546       11.0037244755
  O        10.5670589261        5.1368109462       12.9720452378
 Si        12.0321524922        4.8668165130       13.5197356543
  O        13.0733519981        5.1263404747       12.3283283417
  O         9.7592386919        4.3766064961       10.5795541572
  O         8.6766922106        1.6372890181       13.1388956163
 Si         9.4063495001        0.7821642180       12.0092389618
  O        12.1577563048        3.3065401302       13.9825371439
  O        13.9788191301        2.9200430538        8.5787185250
 Si        10.9783430812        1.1623159240        7.8428176130
  O        10.0864260127        6.6106006898        8.1727549861
 Si        13.3459473248        2.3766884269       14.5953455301
  O         8.1172724904        4.8865949704        8.1778743498
  O        13.2341705301        0.7508200100       14.5592884663
  O        12.2448837303        5.9417946700       14.7235476647
 Si        14.0206923875        1.6939744570        7.5103374155
  O         8.3526794768       -0.0134328562       11.0956767054
  O         1.3118157682        7.8558979626       13.9719631735
  O         2.5715653479        7.5286208090       11.7427765907
  O         5.2049887466        7.8566030072       12.3619569309
 Si         5.3871421053        7.7036653571       13.9612564625
  O         3.8895294353        7.8479786172       14.4672574624
 Si         6.9094888645       14.2324959278       11.2837029193
 Si         1.1171047214        7.8618688805       12.3529192199
 Si         4.0389337493        7.9672360712       11.2284556020
  O         5.3671922954       11.4120180218       13.9066985789
  O         1.7271648339       13.4823360957       12.2364911371
 Si         3.0474108270       13.5088485967       11.3464133006
  O         5.3728811595       11.2477877405       11.3249495941
  O         4.2323412083       13.3142854489       12.4091456162
 Si         5.4470913125       12.2715754129       12.5691672278
 Si         4.1727496732       10.9599336081       10.2827493368
  O         4.6298684501       11.0855789524        8.7602140673
  O         3.7346522277        9.4366632362       10.5971340171
  O         3.0703982710       12.1589764376       10.4257303299
  O         6.7913464549       13.1530122143       12.4854992038
  O         0.9929376951       11.0839934849       13.8841238338
  O         6.6080076604       13.4711294142        9.9118856019
  O         0.4998389318        9.3190374428       11.9892283094
 Si         5.8837645092       10.6710691393        7.8537045882
 Si         0.2938916136       13.7007196942        8.3971854225
  O         6.2810510822        8.9246423596       14.4754524650
  O         6.1213419604        9.1056128669        8.1069540722
  O         7.1932046061       11.4993725449        8.2713354194
 Si         6.4412906554       10.5001970862       14.6890613225
 Si        -0.0133481384       10.6636043285       12.6990145448
 Si         0.2776581270       13.3691504327       11.5546478231
  O         0.4931391371       13.8168494422       10.0105688774
  O         1.4887829632       13.0572212271        7.4618419828
  O        11.1538336238       12.9860160761       10.6958518648
 Si         7.5374608940       13.0149266237        8.6744015671
  O        14.7228395037       11.8185522550       11.5808383803
  O        10.3252279330       14.5164507171       12.6464239378
 Si        12.7121314590       11.7838459894       14.2650916555
  O         7.8758938278       10.8314330541       14.0441007169
  O         8.6810406707        9.2758087279       11.9873846631
  O        10.7454410928        7.9391536621       10.5152590096
 Si        10.6330101248       12.9758006738       12.2150867813
 Si        14.2224318866       14.3846204098       14.2045003435
  O        13.4661211565       10.5814936688       13.4796236579
 Si        10.6617270540       13.2527865530        9.1924331211
  O         9.0908179288       13.0560329151        9.0182658784
 Si         9.0570337583       10.4829376857       13.0082704610
  O        11.0045467841        9.0143339464        8.0037566191
 Si        10.2022290855        8.0140375446        8.9613115738
  O        13.6558107147       12.9792259789       14.8077366802
  O        11.4034778815       12.1632129220        8.2714965563
  O        10.3513612396        9.8505535100       13.7327068033
  O        13.9768418924       12.6574737315        8.2796337253
  O         9.4245842158       11.8991211040       12.3129227374
 Si         9.1726009338        8.0534983258       11.0725165671
  O        11.7431331694       12.4902649352       13.2254415864
  O        11.0052004919       14.7906679728        8.8472159198
  O        14.2308109053       14.2296709500       12.5705281085
  O         8.6830699350        8.3488281735        9.5207478107
