216
15.032 15.032 15.032
  O         4.7772992375        3.9190254823        2.5119369371
  O         3.2908232987        5.2488720794        4.4601210759
 Si         3.5673126803        3.9175869499        3.5899939098
  O         2.1850944365        3.6844886465        2.8206195189
 Si         4.2157973679        1.1476806003        4.5671593833
  O         3.9169879533        2.7297697966        4.6237481202
 Si         5.5181890196        3.8439422460        1.0743153177
  O         1.0135217539        4.6983903869        0.6997433278
  O         3.7585765038        0.5604856233        6.0218003506
 Si         0.7977222718        3.8457643180        2.0469092558
 Si         2.1204817501        6.2961043518        4.8769461286
  O         5.7321017933        0.7049807360        4.3060390421
  O         2.8258247939        1.0929023709        0.6260208933
  O         0.6128728665        5.7029772000        4.9278504705
  O         7.1239207906        4.0016975914        1.2510060553
  O         3.5190024363        0.6194520379        3.1907470403
 Si         7.2570709473        0.6526826964        4.7835492868
  O         2.1953293258        6.9739104618        1.2564422846
  O         2.4142107061        6.8105917836        6.3544832958
  O         0.4762681441        0.2395573496        0.0577973904
  O         7.1289877907        5.9611297179        2.8186996827
  O         5.4032502624        2.4423593659        0.3203738788
 Si         1.4273296439        6.1385006219        0.1061512892
 Si         3.6270049661        0.1124513447        1.6519862062
  O         5.0954446545       -0.0008280830        0.9376057304
  O         4.7789160250        4.9395562264        0.1564748374
  O         0.3945131792        2.3419379736        1.7264161341
  O         2.1935049985        7.5177736660        3.8304060324
 Si         7.1617288015        7.5611427428        2.5975940818
  O         7.5895112751        2.1893585784        5.1690203999
  O        14.6448151114        4.5353954775        2.8947579286
  O        11.1829715991        4.8437427865        6.7314819520
 Si        14.5859631419        1.3846262775        0.7781486311
 Si         8.1051231227        4.7785613718        2.2652467367
  O         8.6872199112        3.7634342960        3.3772284852
  O        12.1352644615        2.3486331281        6.6537654209
  O         8.7736812094        4.5276495090        5.8513210663
 Si        14.2271081187        5.2838510434        4.2582725068
  O        13.3092574711        4.3023111518        5.1650984605
 Si         8.7991450106        3.2190413557        4.8946764254
 Si        12.5177548395        3.9500194128        6.5286461962
  O         9.3873519823        5.4908930965        1.5688482479
  O        10.0960828837        2.2740290877        5.1846118653
  O        13.3212917844        6.5701111094        3.9145574390
 Si        10.7324248839        1.4996109158        6.4768997667
 Si         9.6590737666        5.3577964302        6.9300518765
 Si         9.8897435350        7.0415198231        1.5615679617
  O        13.6222475311        0.5488782111        1.7237518973
  O         9.6344018075        6.9700138933        6.7351619324
  O        11.2562497312        7.2081361186        2.4061705342
  O         7.3644394841       14.7207412640        6.0832124571
  O         6.1209071949        8.1427215535        1.4917788799
 Si         2.3601862425        8.1372579890        2.3628021396
  O         5.1623206416       12.4514109929        3.8378763221
  O         2.9048622209       13.7113448170        1.6408412487
  O         4.2339457326       10.4948400953        5.2302284886
 Si         1.7936149835       12.7987266480        2.3484802097
 Si         3.8265734508       11.9463961155        4.6102057483
  O         2.5041536016       12.1373388385        3.6775134877
 Si         5.0804058711        9.3955526556        1.4317203903
  O         5.7990341663       10.7191002685        2.0394138218
  O         3.7666800799        8.9283119774        2.2594537525
  O         1.4924068598       11.6074553645        1.3384479444
  O         3.5338295391       12.7625851774        5.9505901226
  O         1.1535255237        9.1587704866        2.1224979314
 Si         6.4381275587       11.6828983754        3.1764903430
  O         6.5164470617        9.4719063009        6.2653867244
 Si         5.0043407136        9.9132581112        6.5480483830
 Si         0.5886457322       10.3095596568        1.1704391815
  O         0.3851269008       13.6174722722        2.4987430251
  O         4.2129930622        8.5970823091        6.8951450832
  O         6.8035055313        8.2333774125        4.0019491094
  O         7.2763563189       10.7984259404        4.2233013581
  O         1.2283881825       13.3243443734        6.8830415317
 Si         2.6744796904       12.8117471757        7.2987351915
 Si         2.9567030070        7.8104946491        7.4621017140
 Si         7.4125534020        9.3773907468        4.9508836509
  O        13.7757711179       11.5252840249        4.0792210216
  O        11.2582435621        7.8330446742        4.9497143965
  O         8.2270223936       15.1041773998        3.6064820557
  O        10.0999646104       13.3878981911        2.3569085908
 Si        14.8073574222       13.7097585354        7.3965746211
  O        14.0948551007       10.5741425857        1.6316822072
 Si        13.2289774478       12.8706813626        4.8228442938
  O        10.3443305127       12.2231744490        7.1239983041
  O        10.9486856158       12.0445698596        0.2150701300
  O         7.5554684173       12.7602404609        2.7292858687
 Si        13.1123621530       10.5750609479        2.9202167593
  O        10.7352957611       14.8868917459        6.2669938190
 Si         8.8111305861       13.5870401544        3.3545709952
  O        12.7691165289       13.2351954324        1.5820203636
  O        13.4003460556       14.1803849664        3.9120086491
  O        10.8126138676        9.4757009355        6.9608513234
  O         8.9297145206        9.0718499551        5.3139199592
 Si        10.4677507379       13.2882810785        5.8837401596
  O        13.8434299555       13.2250756111        6.2363130625
  O        11.6548053426       11.1865034913        2.5731540495
  O         9.2317948877       13.1427959156        4.8579860858
  O        12.9193280631        9.0626664579        3.3748138808
 Si        10.1687609831        8.3308458515        6.0193787113
  O        11.6671875126       12.6796172627        5.0175514514
 Si        11.3162219625       12.5098066011        1.6945242427
  O         8.6875239541        7.9172923557        2.2035208406
 Si        12.1814401257        7.6639311718        3.6527854030
 Si        13.8624807346       14.1309596072        2.3791703458
  O        10.0258321375        7.5901714655        0.0706408504
  O         4.1363658259        4.0784580464       12.7835962777
 Si         2.7872887330        1.4319393975       10.0423705191
 Si         4.1422814812        3.8239315352       11.1888316861
  O         5.5656759516        3.2024012744       10.7251298534
  O         3.9121143024        5.2351071104       10.4919318764
  O         2.9082448613        2.8922953575       10.7176951611
 Si         4.1119185097        5.3536265154       13.7844122970
  O         1.2823866458        0.8534950366        9.9380178864
  O         5.0769873560        6.4936847028       13.1530839885
 Si         3.8197174370        6.7945333516       10.2407287886
  O         3.4301786100        1.4757781948        8.5518225063
  O         1.4043551981        2.0946071664       13.6147907486
  O         2.5803033638        5.8796075538       14.0088287802
  O         3.5971924561        0.4669764287       11.0382973532
  O         7.1862771408        0.6973112563       14.3193612358
  O         4.7867917630        0.8703074093       13.4019397559
 Si         1.8603111506        0.7458173698       14.4086779122
  O         3.5272227160        6.9697862673        8.6915989120
  O         5.2292906266        7.4502311214       10.7397692038
 Si         7.1562627446        2.9350000823       10.7451415934
 Si         5.6429892547        0.9798971548       14.7726855508
 Si         4.0616054635        0.3290003962        7.6073293846
 Si         5.9063878362        7.5177578934       12.2251364541
  O         0.0202534865        6.8900312531       14.7161681434
  O         5.6431955694        0.3154618556        7.9037308607
  O         7.4345561536        1.8751700585       11.9607290181
 Si        14.9050208222        1.0173080137        9.1640412462
  O        14.8814095736        3.9113967389       12.6073621877
 Si        14.8844234166        2.4495848226       13.2622047030
  O        14.7919775561        2.5928256850        8.9270885805
 Si         8.0101566639        0.6776425352       12.9185032070
  O         7.7572951860        2.2617110711        9.3973289021
  O         7.9137585786        4.3912559868       10.7832151833
  O        14.4775221378        4.9280406997       10.1870683961
  O        14.3272560489        6.5170945345       12.3530399817
 Si        13.8426937569        3.8605304566        9.1357950544
 Si        14.1027080236        5.0498934590       11.7674866514
  O        10.4592690903        4.9258345903       10.4878068315
 Si         8.9280880408        1.2044479805        9.0257916135
  O        12.5336876610        4.7729039488       11.9786867484
 Si         9.0020834132        5.2955745265        9.9540305523
 Si        11.5711845331        3.9446985846       11.0145021606
  O        10.9521647725        2.7344816975       11.8250503405
  O        14.2498073427        1.3295372900       12.2942921918
 Si        10.5340493687        1.1961100605       11.7668475102
  O         9.5844819772        1.0035417165       13.0606276397
  O         9.7939089214        0.8781020888       10.3531402238
  O        12.4471628895        3.3616187839        9.7890167298
  O         8.9186668052        6.8911706786       10.1890405497
  O         9.0028518392        5.0152791415        8.3681540931
  O        13.6986539854        0.3928862640       10.0276733878
  O        11.8211695078        0.2539977233       11.8955708430
  O        14.0097207337        2.3413395358       14.6359880998
 Si        13.8577884901        7.3342970345       13.6727023121
  O         9.8603790961        1.7862806971        7.8280940498
  O        12.2664527185        7.1996016970       14.0042668869
  O        13.5405869375        4.4544311916        7.6835359932
 Si        13.3968829596        0.1587197398       11.5912265519
  O        14.8101011988        0.2445946753        7.7501222051
  O         7.4956034941        7.2836326684       12.2185229297
  O         2.5721105837        7.4552466652       11.0409066519
  O         2.5250919892       14.7225952812       13.3758086763
  O         5.0955133055       10.8909050830        7.8345199176
 Si         3.8928766286       14.9173487877       12.4970787715
  O         2.4253033288       11.4257065282        8.0744952465
  O         6.6526488289       12.9274220048        7.9774535019
  O         1.8037181412        8.8538306278        7.9129466799
  O         5.7835083159        9.0011182602       12.8270970633
 Si         2.2527535539        8.9669456066       11.5160326063
  O         0.7842840199        9.3007277281       12.0440295247
  O         5.4017084893       12.0489131662       10.1977751703
 Si         6.1444757543       11.6446470313        8.8094272243
 Si         4.5126044793        9.8085156669       13.3752211525
 Si         5.3882122642       12.2181693209       11.8139719247
  O         3.1535163301        9.1512059231       12.8358370438
  O         4.7799161272       13.6328334737       12.2148255768
  O         2.4222446019        9.9443438458       10.2226935559
  O         4.4628359686       11.2405975967       12.6760161921
  O         6.8700184696       11.9693488244       12.3820888583
 Si         1.6577019961       10.1984100800        8.8012363541
  O         3.4437242532       13.9479535938        8.1421471351
  O         0.7802801812        9.9435126049       14.6491450517
 Si         6.9566926682       14.4585112269        7.6224567762
  O         4.6119691220        9.7840041809       14.9723569174
 Si        -0.0206897797        9.9491438003       13.2634933352
  O         9.3263380594       11.9002313833       13.3155184418
  O        15.0973469683       10.4852483027        8.9367109958
  O         7.4273944532       10.7241360973        9.1553627922
  O         8.2142009048       14.8827647200        8.5343599528
  O         8.0638783605       14.1947681251       12.2990427796
  O        13.2471515561       11.5096526656       10.6009865172
  O        14.4873795131       11.4181714201       12.9227521984
  O        10.9543519116        9.7315798813       13.9259197566
  O        12.5329461530       11.0362711860        8.1467107464
 Si        10.7810639235       11.3520458502       13.8070364752
 Si        13.3256354862       12.1508594647       12.0823420233
 Si         8.3418218411       12.5942412879       12.2412804763
  O        11.8958223097       11.9041975274       12.7721043644
 Si        10.9495569991       10.8512384428        7.8114322836
 Si         8.8216040552        7.8605528302       11.4844558361
 Si        10.8858043828        8.0953931168       13.8450712323
  O        14.3314740127       12.9149771574        8.7052264793
  O        13.7790631603       13.6996657227       12.0523394372
 Si         8.7804406955       10.6915687291       10.0384886753
 Si        13.7901064797       11.4443177316        9.0885353892
  O        10.1049521125        7.7404932739       12.4636638079
  O        13.7986827905        8.9274958644       13.4601821002
  O         8.9133985114       12.1186848210       10.8050383994
  O         8.6919405145        9.4074652081       11.0300809124
  O        10.1053331236       10.5716124351        9.1506998640
