216
14.899 14.899 14.899
  O         4.4733744015        3.7329384356        2.6542184624
 Si         6.5383266952        1.6740765882        4.8133466143
  O         4.2857869420        4.6559330718        5.0621261816
 Si         5.3207750923        4.2447169000        3.9049930434
  O         6.2128847326        5.5617263749        3.7929230530
 Si         4.0868261130        5.9341256134        6.0424937958
  O         2.4893588555        6.2092971975        6.0408509952
  O         5.4045567856        1.8134100309        5.9612526773
  O         6.3793510934        3.0639186856        4.0590097904
 Si         3.2908547626        3.8770890631        1.6010627393
 Si         2.8598242525        0.8942034942        1.1421763057
 Si         6.6000694718        6.8643369144        2.9548179236
  O         1.8980326661        4.0649796962        2.3955613149
  O         3.1377827608        2.4594597776        0.8266770925
 Si         1.1683422052        6.8064523221        6.7578017601
  O         3.7984912622        5.1123363300        0.6621867668
 Si         4.2285376853        1.3164105050        6.9319789154
  O         5.6327134352        6.8643177883        1.6681161506
 Si         4.8707824776        6.3059064598        0.3691821706
  O         6.3751480668        0.4034903673        3.8129340823
 Si         0.3207472865        4.0798892611        2.7323816224
  O         2.1449075916        0.6636317889        2.5731661922
  O         0.4914579925        1.8946278977        6.7955549243
  O         2.9142812958        2.2391375733        7.1910994977
  O         7.2794246400        2.0862380446        0.3293636537
  O         4.8851191154        5.4509726068        7.3593298886
  O        14.9894981966        5.0382343973        3.9998165052
  O        14.7357915705        5.9540303005        6.3720634163
  O        14.4772830800        4.5472646011        1.4062583295
  O        14.4806744223        2.7145844274        3.1567826204
  O        14.4641830341        0.2499328624        3.2332860179
  O         9.5086224675        3.3284158090        6.8811874005
  O         8.0362815133        1.6532207985        5.3726107114
  O         9.9285095220        2.3201459712        1.0972872606
  O         8.1718270613        6.7086178867        2.6496685160
 Si        13.8259444101        2.1900000166        6.7392172093
  O         9.9315532660        6.1105889171        0.8450210852
  O        13.6583754351        3.5486871908        5.8780867960
  O        13.1603797982        0.8370041732        6.2013302959
 Si        13.9920049530        5.0193816738        5.2742036411
  O        12.6670376617        1.7426592068        1.5790639519
 Si        13.4486005060        1.4874738363        2.9880673439
 Si        11.0421581777        6.0210357772        4.6214543459
  O        12.5785219153        5.5546981835        4.7228422887
  O        10.3474950472        5.6398531637        6.0384020270
 Si         9.1333455052        1.8073238998        6.5260824295
 Si        11.1921071090        1.3114239247        1.0510027932
  O        10.2607961762        5.2966374059        3.3879022851
  O        10.5116886541        1.1542963174        6.0380544915
 Si        11.8237609370        0.5216915207        5.3762023805
 Si         9.1961993813        5.5524016851        2.1850435582
  O         8.3638669527        4.2071911898        1.8043651939
 Si         8.5690267725        3.0802076198        0.6453577630
  O        12.1726381345        1.2499667468        3.9715375436
  O        12.8319772078        6.0436180756        0.0861178393
 Si        10.2717531743        4.6734832915        7.3319588890
  O        10.8454622911       -0.0125071165        1.8977295852
 Si        14.1902329455        5.1945882314       -0.0105181923
  O         4.7238666810        7.3638487493        5.6270603222
  O         3.7962054094       14.8364218681        6.2122847868
  O         4.2303386322       14.9855043207        0.9990523812
 Si         1.0563700184       14.5249558624        3.1989005212
  O         6.3727242151        8.1997874478        3.8245628068
  O         0.8261199776        8.3560523516        6.4569109749
  O         1.6713318484       14.0724702985        4.6390347791
  O         6.0417971196       13.4854264666        1.8286685172
 Si         2.8047902236       13.6533059077        5.7463765740
 Si         2.9575972106       11.0573928387        1.7390451101
  O         2.9098997711       10.7686161994        3.3302297217
 Si         5.6701539571        8.6086609959        5.2307635920
  O         4.7904046738        9.9500746830        5.0383377100
  O         3.7126006333       12.4244790894        5.2036465203
  O         2.3828726511       10.3486513523        5.9551156977
 Si         0.8291661566        9.9438690257        6.1566523308
  O         1.4873709415       11.1627417319        1.0673960965
 Si         3.4623576889       10.8538185169        4.8607381563
  O         3.7250933923       12.4260754999        1.4039830375
 Si         4.7883767467       13.4842305904        0.8580511958
  O         6.7863286253        8.9297832443        6.3659011043
  O         3.7287759547        9.8472536028        1.0070073769
 Si         7.0088748306       14.1130781873        2.9221263119
  O         0.8348779712       13.2611143184        2.2350457175
  O         2.0663598706       13.2349037165        7.1147656128
 Si         0.1929272871       12.0928657347        1.3308526865
  O         0.1623829154       10.2629552517        4.7140863417
  O         7.4431491570       12.8273658113        3.8049474489
  O         0.0794644896       10.7574820570        7.3693194565
 Si        13.8063475594       10.7912970496        3.8413019529
  O         9.4147006218        9.3517697463        6.6242698269
  O        10.5901475238        9.4356437871        2.4022041960
  O         9.7890824132       12.5797264015        2.7272858128
  O        12.7318184946        9.6003740833        3.8875770970
  O         9.6869562129       10.7640095656        0.2544767918
  O         9.7692830881       13.3189652851        0.1535640876
  O         8.8566143601        8.4455595422        0.6529837136
 Si        12.6670775749        7.5790830241        0.5436390762
  O        11.5873885811       13.8287382311        5.3863361773
  O        12.5046134960        7.6873949757        2.1415929576
 Si         8.6118098544       11.7569700225        3.4966746417
 Si         9.7332271743       10.9133239971        6.3271285939
  O        13.2514999373       12.0779940841        4.6230116384
 Si         9.6753652669       13.8206154280        1.6938493039
  O         8.2726107271       10.5146539262        2.4827417400
  O        11.0155678371        7.6153880662        4.3045677932
 Si        11.6972937202        8.5907200587        3.2055038195
  O        11.2770777578       11.2601341789        6.1276445131
  O        13.1606105370       12.6549020274        7.2065454503
  O         8.2989846166       14.5836987288        2.0712812496
 Si        12.3109421812       12.4678447229        5.8539840730
  O         9.0164337408       11.2530125154        4.9462525409
 Si         9.3197300314        9.7764985457        1.4691764368
  O        14.0844644584       11.2549559162        2.3083883072
 Si         8.0538972643        8.8328108986        7.3601219051
  O        13.9960455499        8.3669686006        0.0733019683
  O         4.5513473566        1.7450878868       10.9329489117
 Si         1.4235242730        6.6504988027        9.8859424015
 Si         6.4462446408        6.2143562141       12.6956745537
 Si         5.4450850870        5.3718436647        8.8593989312
  O         4.9511453945        3.9204705520        9.4366448757
  O         6.8867945724        2.2356357229        9.6120978068
  O         1.0876725752        2.9720118216        9.0947914477
 Si         5.2776830244        2.3349611066        9.6167239866
  O         5.0475394520        6.4453519908       11.9307460543
  O         4.8859539569        6.7819954664        9.4322115012
  O         2.5738370781        1.1568290054       12.6515570682
 Si         6.7059565588        1.4096764727       13.8300221994
  O         5.1287270166        1.2343412764       13.4161139613
 Si         1.3539468181        0.5755081070       13.5321252434
  O         0.9936807097        5.2213435491       10.4290395069
  O         4.8142930847        1.3161787522        8.4374485483
 Si         4.0984337628        0.8554736645       12.2019670205
  O         2.7332353374        6.9583830890       10.7634080810
  O         6.0422793140        5.8756245808       14.2286744460
  O         0.3471155155        1.7976285577       13.8272243547
  O         7.0266294904        5.4586000792        9.1858278140
 Si         1.5513540033        1.8883449374        7.9911603086
  O         1.5733634038        6.6130887192        8.2998145396
  O         1.6524993762        0.4252904953        8.6850878825
  O         7.3692705308        4.9643526460       12.1767856335
  O         0.5017868821        6.2086342767       14.5665830411
  O         7.2926600239        2.3465355563       12.6557109247
 Si         0.2676872052        3.8362904213       10.1853678712
 Si         4.2884222829        7.3218244094       10.8103461043
  O         1.8971538153        0.1671035149       14.9780234280
  O         0.2517646145        3.0566075824       11.5799983530
  O         7.2616175658        7.6026044345       12.4123923131
  O        14.0044172658        4.1186962816       13.7313936579
  O        13.1696704337        2.3005371647        8.1985668493
  O        11.7422928537        4.3889908934        7.9381213601
  O        11.3404771214        0.9959350712       14.4040931350
 Si        14.3556513932        2.7823231670       12.9348844152
 Si         8.2363125215        3.6665252706       12.6531581647
 Si         7.9529779803        1.0653569436        9.3008874672
 Si         8.4016181342        6.3021512379        9.1246108120
  O        13.0108255343        1.9998198540       12.5885991803
  O        11.4212789608        2.8148333056       10.0928268037
 Si        12.4431003514        3.4515937893        9.0415482836
  O        13.6527683558        4.2196320413        9.7685017028
 Si        10.3097818680        2.0994709502       11.0105613239
  O         9.5222728812        3.3134886523       11.7492867415
  O         9.2644704646        1.2559619680       10.1660378586
  O        10.9254775235        0.9064874628       11.9147462528
 Si        12.0801889058        0.7691133649       13.0228977765
  O         8.7749401221        3.8884504764       14.1565995529
  O         8.9277899959        6.9618470218       10.5222055973
  O         9.5226231012        5.2968261784        8.6028251983
  O         9.5266762244        7.0344974885       13.2510814737
  O         8.4441559027        1.0727471695        7.7761857223
 Si         9.8693956262        7.4116995741       14.7871917415
  O         7.2881169805       14.8059532756       13.8234997400
 Si         0.4735363335        7.8018569743       14.3227568427
  O         0.4081479008        7.8558221427       10.1805221560
  O         4.0489192845       14.1666610124       11.8324490447
  O         4.3898170423        8.9284577628       11.0089682812
 Si         1.6535409831       13.7079055016        8.5981585811
  O         2.5813481311       13.1657197055        9.7843028262
  O         5.1401085526       13.0791805410        9.7760940146
  O         3.4731299412        9.6928855720       13.3222411028
  O         3.8096001296       11.5203963712       11.4305885914
 Si         3.4053469297        9.9987862737       11.7459367671
  O         1.8898889524        9.7712884176       11.2511628046
 Si         3.8533759941       12.9818088111       10.7339074093
 Si         6.6562694533       13.2354823729       10.2838801284
 Si         0.5553193975        8.8801533097       11.4050081951
 Si         6.7163950661       13.3226298891       13.4964137725
  O         6.6885209620       13.1664815223       11.8972549563
  O         0.5891135876       14.1707414428       12.9299559640
  O         0.2406122609       13.0089978092        8.8539005795
  O         5.2884327738       13.1594330096       14.2465776210
 Si         3.2580887348        8.9034730824       14.6999026509
  O         0.5794676553        8.0275648342       12.7512234497
  O         1.7256153105        8.5235230408       14.9894350951
  O         7.2815328795       14.5717812496        9.6888664182
  O         7.4493607643       12.0122870666        9.6809534919
  O         4.0669833097        7.5322161995       14.6396695657
  O        14.1576403346        9.7676345076       11.4185738570
  O        11.8047918865       10.6043993226       11.5795343689
 Si         8.8203617087        7.7360008227       11.9594539311
 Si        14.1594385434       11.9011973596        8.2290116689
  O         9.7766659481       11.0941495967       10.1054830005
  O        12.9117462567       14.2956250158       13.1781823635
  O         8.1970326501        7.3612889863        7.9366413786
 Si        14.1724522343       13.2746012204       13.3109845872
  O         9.4346291355        9.2322187100       11.8516285307
  O         9.8479735729       11.7487198318       12.7456284930
  O        11.3316865701        8.1167414399       14.7358416778
  O         7.6822560224       12.1748162709       14.0780824724
  O         7.9228565547        9.7549339140        8.6797426388
  O        14.4023776116       12.5915566044       14.8134895988
 Si         8.6035486503       11.1730570040        9.0159759006
  O         9.1832632461       11.7504233849        7.6125079840
 Si        10.2020658696       10.6520404796       11.5939359536
  O        13.3431182675       11.4010574083        9.5506349492
 Si         9.2758985087       12.0045879854       14.2363580350
 Si        13.2850400856       11.0617158125       11.1456338913
  O        13.9010110680       12.1736762333       12.1636454114
