216
15.175 15.175 15.175
  O         1.8171166097        5.2155465759        5.2732129659
 Si         3.0652200000        5.7833296546        6.1128884032
  O         4.1756629269        4.5642575300        6.0146639639
  O         4.4317253974        1.6343786793        6.1685791720
  O         2.4503958727        5.0615834136        2.6093600332
 Si         2.5960887876        5.5049806870        1.0480743481
 Si         1.3295754609        4.9456955636        3.7625730194
 Si         4.1707788269        3.1109948080        6.8016014421
  O         3.5481525367        6.8001036028        0.8733769646
  O         4.1142723766        1.8918053659        1.0215169054
  O         3.4708684909        7.1838131271        5.3773398100
 Si         4.9779158741        0.5274667908        1.1978293157
  O         6.5712820090        0.6287846057        0.7157604721
 Si         5.1485849275        0.1780001026        6.3542289827
  O         3.3983896180        4.3202093500        0.3074289737
  O         0.6290535459        3.4807965782        3.7862713507
  O         5.1277927551        0.2357109660        2.7751319202
  O         1.1326647404        5.7639498113        0.3994360003
  O         0.5662764519        1.5089704484        7.4229606743
  O         2.6859494850        3.0867389429        7.4323419951
  O         1.4910100901        0.1744541771        0.4711692470
  O         1.5045950054        2.6127319492        0.2361334904
  O         0.2408490801        6.0759055192        3.4064789643
 Si         3.1190284185        2.7567451055        0.0684239926
  O         7.7359965388        0.4648734112        3.0013867242
  O         9.5698359880        4.8760188136        0.5563997226
 Si         8.0504304255        0.8865511565        1.4638566931
  O         8.4603544385        2.4493922359        1.2643958268
 Si        14.2291147997        1.5464034307        6.8721320312
  O        14.1624869189        2.2253378374        5.4295385748
  O        13.5941971447        2.1312451878        3.0026830652
 Si        13.8335011773        6.0244653327        3.6835841331
  O        13.4327149807        4.4777106845        3.9542834821
 Si        14.2560138291        3.0865834409        4.0870750808
 Si        13.1317010146        2.1428362510        1.4867227199
  O        11.6925591012        1.4192509112        1.4152639573
  O        13.4464580490        6.7113788392        5.0579941677
  O        13.1937801531        6.7947108156        2.4427171212
  O        14.3030534972        1.3523922448        0.7130873597
  O        12.9619496755        3.6386711209        0.8682859747
  O        11.7818084928        7.1104569498        7.0246036484
  O        11.3784179400        6.9429949477        0.7033955388
  O         9.4188255598        0.0649552872        1.0227611135
 Si        11.0192633582        0.1689966923        0.6365188771
 Si        12.8923429902        7.4523911671        1.0055428684
 Si         8.8022873709        3.5155729248        0.0899058041
  O         6.2256642016       15.2479025690        5.1539992265
  O         7.3552841043        9.0861013333        3.8765719899
 Si         6.4158848109       14.8978587404        3.6100222322
  O         3.0026935592        8.2940924474        2.9096632592
 Si         3.9480352446        8.1766767282        1.5906826706
  O         5.4601130352        8.2233723048        2.2007422540
 Si         6.5211864666       11.4196783228        6.7793339770
  O         4.8052616866        9.2418880941        4.5115082782
 Si         3.3509862573        8.5305241189        4.4861856789
  O         4.0331375145       14.1558099257        6.3110107954
 Si         5.8747099693        9.3251264972        3.3081498833
  O         1.0376635510       11.2931130969        3.2591981559
  O         2.2150271775        9.5678986187        4.9808784873
  O         0.6153972974       11.5387112402        5.7027362618
 Si         1.7540552827       11.0915777178        4.6699515756
 Si         3.6281678115       12.5842310841        6.3194268539
  O         3.0056802797       12.0974790741        4.8986767235
  O         1.9766921420       13.3481804853        1.9639304347
  O         5.8356769283       10.8276395538        2.6840323797
  O         6.4879315608       13.2925787418        3.4818376687
  O         4.9555061704       11.7068905959        6.5614798889
 Si         0.6902310523       12.3541074254        2.1299947764
 Si         6.9074633564       12.0393712795        2.5771941851
  O         0.5571203467       11.4608341838        0.7840424538
  O         4.0122932258       14.5165660364        0.5499740456
 Si         2.4348549071       14.0731770049        0.5817710744
  O         3.8752546563        9.4146757357        0.5406738892
  O         7.0340498280       12.5736553711        1.0827208488
  O         2.4460328007       12.2547987044        7.4230376354
 Si         0.8708947187       11.8476427713        7.2615877676
  O         7.3600796517       11.2059353873        5.4350907618
  O        12.7320994784       11.6272814164        1.0331163884
  O        13.7443659609       15.1939670192        6.9530262897
  O         9.6366817022        9.8865803569        4.8245187979
 Si        11.2001387785       10.1080021381        4.5164938200
  O        11.9382964480        8.7723390130        4.9817187041
 Si        11.8121447788       10.3676308892        1.3659527222
 Si        11.8592757196       11.5922993730        7.0855131667
  O        10.5154460003       10.5124037894        0.3871223700
  O        13.9942705581        8.6240428923        6.6416545636
 Si         8.2114030859       10.3807019626        4.3482483432
  O        12.7240301042        9.0549237283        1.0934203029
  O        12.0178966966       14.0826078116        0.9490642567
  O        11.3872173113       10.3668979055        2.9359059518
  O        12.3293475187       13.1160842597        7.2719448927
  O        14.4481921079       13.1941276906        2.2158615752
  O        11.6922772579       11.3017653778        5.5037723131
  O         8.3054991358       11.3924960269        3.0837183472
 Si        13.3338679482       13.1111136768        0.9852698651
 Si        12.7714012602        7.8152007566        5.9621790874
  O         2.4527145791        1.2711695776        9.2401611256
 Si         4.7159073469        2.0393561572       12.7451196941
  O         4.0396601935        1.6537607549       11.3189748988
 Si         6.6631956555        4.4659406400       13.3169712587
  O         5.6002662985        3.3939148221       12.7323776049
  O         6.0755567252        5.9437311534       13.6046054930
 Si         0.8852045549        6.0992171408       11.4501056221
 Si         3.2721088667        6.1931466380        9.1981241211
  O         6.6425628494        3.8704351130       10.0317815023
  O         0.7891359200        3.3216589857        9.2487602611
  O         4.4095004240        5.0546272976        9.3417106133
  O         2.2137286359        6.0963140968       10.4550251440
  O         3.4788075480        2.2898902302       13.7459740324
 Si         2.8782210953        0.7118136767       10.6747139063
 Si         1.6227996220        2.2969271877        8.3325592617
  O         5.6114151717        0.7840780997       13.2763495397
 Si         5.7967614644        4.4497138367        8.7943680300
  O         0.8636863520        6.4062092238       13.0787485337
  O         1.5841402719        0.6322876602       11.6146570067
  O         6.7357523727        5.5275814042        7.9919010949
  O         0.2442156219        4.6368478484       11.3837035848
 Si         6.1512519107        7.4336967618       12.9707615105
  O         7.3601549250        3.8723718615       14.6323624157
 Si         0.5365692478        1.3375638589       15.1225578925
  O         4.1099993580        7.5751638284        9.2461197670
  O         0.0908052370        1.1947930574       13.5975021274
  O         2.6852659800        6.0834140523        7.6740079383
 Si         0.0535861228        0.8848866531       12.0380759295
  O         5.3931887485        3.2331780625        7.8363852288
 Si         0.0091782768        6.0039208807       14.4361824796
  O         7.8358282564        4.6609737549       12.2331263756
  O        15.0931905640        7.1996217014       10.8305128645
  O        14.6267377380        2.1326952773       11.2128085677
 Si        14.8540787328        3.5099309330       10.4085994026
  O        11.7024823515        4.5625951788        7.8862434405
 Si         8.1161742553        6.2781204743        8.4301900558
 Si         8.0274465958        4.3920359710       10.6733385959
  O        11.0677596230        0.5414714954       14.2293739837
  O         9.7843504238        2.8349096890       14.1678379593
  O         8.3808585990        5.7829113729        9.9509231486
  O         9.1716026780        3.3168011957       10.4363048816
 Si        10.1972898401        2.0921360397       10.4878621198
  O        11.3766502489        2.4456234680        9.4791118525
 Si        10.9971613824        1.9907701478       13.5145595927
  O        10.7543828170        1.8233210564       11.9584724694
  O        13.4507050389        4.0257699048        9.8030118342
 Si        12.4241084908        3.3940586032        8.7257780796
  O        12.4220455813        2.7478171601       13.6759132910
  O        11.2193841113        6.4835308773        9.4921594112
  O         9.4782941312        0.7174211829       10.0981049158
  O         9.5812727890        6.7934086579       13.9884399991
  O        14.3090399121        4.6711800742       14.0722333855
 Si        12.8653974252        4.0733230102       14.4733212918
  O        11.6961223411        5.1365287269       14.1535781688
 Si        11.0419981623        6.0292278410        7.9596969357
  O        14.0624579790        7.0336321574       15.0947962618
 Si        10.5356692070        5.9366108741       14.9541800414
  O        13.2753041119        2.4540951289        7.7655595688
  O         9.4588197988        5.9308011113        7.5872244304
  O         5.2931788007        7.3514316013       11.6060500374
  O         1.8887195689       13.1223773350       14.5301007351
  O         5.6847577655       11.1350197754       14.5421254741
  O         3.3898937931       14.3926017385       10.4335781741
  O         5.5355708200       13.8357104615       11.7606816495
 Si         6.4333382819       14.6410335399       12.7920526420
  O         5.5132497670        8.5811447397       13.9075591816
 Si         4.6637512403        9.8833192437       14.3672207452
  O         1.6720213758       10.8252117176       11.3829256468
 Si         4.8722742259        8.3609728829       10.4181299968
  O         6.2253407282        9.0923750791        9.9607796518
  O         5.3469180644       13.1128163050        9.2624681869
 Si         4.5431994965       13.3104517958       10.6383005629
  O         3.5560027944       10.3571278854       13.2820784748
 Si         3.2273776182       10.6470596005       11.7237218735
  O         3.7882009939        9.4037535805       10.9131970332
 Si         6.5907585639       13.8166308308        8.5097715127
  O         3.9554687374       11.9366980131       11.1498789923
  O         6.7970157019       13.5381850307       13.9127673163
 Si         6.9412433572       12.1417467266       14.7123187062
 Si         0.4462115149       12.3284729246       14.6038011364
  O         0.4616636651       10.4438363218        7.9820704778
 Si         7.3379196063        9.2961402602        8.8275583590
  O         0.1591993940       11.3923361546       13.3642498332
 Si         0.1457014689       11.0432942032       11.8043655602
  O         6.6455246425       10.0443350493        7.5962168635
  O         7.1796612822       12.7104610734        7.4996022865
  O         6.0042204328       15.1147391897        7.7261404294
  O        -0.1299441211       13.0293802745        7.6689907073
 Si        13.6619879920       13.8481544609        7.8221711431
 Si         8.6610685463       14.6877153682       10.7669149562
 Si        10.1371417358       10.4571055400        9.3171043026
 Si        10.7725129126       12.4755919562       11.6920959255
  O         9.7153169784        9.3911355679       13.3600610162
  O        10.5954231154       11.3079198346       10.5949349792
 Si        11.1687108460        7.7909046032       10.4176108516
  O        10.8900034512        9.0306486867        9.4121891802
  O        10.0358746051        7.5995469243       11.5319399394
  O         7.9075280203        7.8652924113        8.3706705190
  O         7.6627385892        7.8947231262       12.6473702282
  O        14.3098804050       14.7659389401       11.7754972339
  O         7.7463921499       15.1775144933       12.0140535141
  O        14.0586658115        8.7803151279        9.1737308871
  O        13.0472521641       10.7402228002        7.7491420477
  O         7.7390294560       14.1471483962        9.5689492547
  O        10.5183507717       11.2131917201        7.9245630067
  O        14.5324637416        9.6611918136       11.6177296705
 Si        14.0714194400        8.4152433323       10.7207600125
 Si        13.6666730827       13.5542457960       10.9316679426
  O         9.6473764893       13.5822809367       11.3790084264
  O        14.3055555976       13.2850728945       14.8490846057
 Si         9.7959910899       10.7987769905       14.1313232980
 Si         9.2506810987        7.9254177917       12.8924310642
  O        12.5834638050        7.9872266656       11.1591933517
  O         8.3000341093       11.3792845225       14.3091520973
  O         8.5440745480       10.2005171434        9.3995392076
 Si        14.2209539370        9.6513439466        7.8609395174
  O        13.5077844684       14.0733083003        9.4124839741
  O        14.6291961415       12.2472499634       10.9817562413
  O        10.5969267709       11.8554867241       13.1863142343
  O        12.2410266839       13.1234576410       11.5449230885
