216
14.844 14.844 14.844
 Si         0.9864112569        5.1624961114        1.9385927029
  O         1.9844235288        5.0387555167        3.2125291787
  O         2.0550270505        1.4856093754        1.7411828449
 Si         1.9060743136        5.6788847026        4.7034201276
  O         5.8562858200        5.2828418471        5.4412826714
  O         3.3573300737        6.2471198523        5.1264782232
 Si         4.7704722402        6.3646060458        5.9181960740
  O         1.5585069906        4.5286629572        5.7827277096
  O         5.2761558495        1.8187316437        5.8655311139
  O         4.2036751963        1.5600395731        3.2967182749
  O         2.8105972829        2.3119564887        5.3628566872
 Si         4.0616502846        1.4105242247        4.9067170517
 Si         0.5994790403        2.1656619602        1.8463074621
  O         1.5818693632        6.1799308800        0.8310802192
 Si         2.3153656215        3.3120684976        6.5252198440
 Si         3.4004617863        0.7126637949        2.1485641044
  O         0.6654853921        6.7593663531        4.6202654938
  O         0.7414344443        3.6959284577        1.3229798056
  O         4.2849332978        0.4941440334        0.8231532173
 Si         5.9763559050        0.9537980209        7.0451269414
 Si         6.9209394648        7.2874707283        0.7780761691
  O         0.4306654232        0.1114330528        7.1817798613
 Si         7.3412775121        4.7135502361        5.2071157576
  O         1.3881837866        2.4879612948        7.5136887420
  O         4.7039033961        6.1093788669        7.5213530811
  O         6.7485596412       -0.0118905519        0.1666703473
  O         7.3438343280        5.8487219945        1.3972264286
  O         7.4177027050        4.4565613119        3.6278699133
  O        14.8557258278        2.1534885069        3.3615054634
  O         7.7519445562        3.3879965609        6.0210472390
  O        14.3680732378        1.3300538277        0.9857222737
  O        14.4271185467        5.7748489149        2.4774332219
  O         8.2146711893        2.0839292686        0.6745413231
 Si         8.3173137214        5.1965952222        2.5128708015
 Si        14.0554677927        6.4088958177        3.9245388999
 Si        13.5211838214        1.5528277883        4.0542363702
  O        13.4381156654        5.2722848704        4.8703472457
  O        12.6211872951        2.7963366724        4.6222459979
 Si         9.5994733593        2.6897550998        1.2180943176
  O        10.8915220673        5.0267334101        4.6283312611
 Si        12.2198421708        4.2747303085        5.1819801144
 Si         9.7901734114        6.2155206128        4.7483896287
  O         9.2292890767        6.3561069468        3.2192380515
  O         9.3170216625        4.0288000765        2.0486251518
  O        10.3179159661        1.4742193279        2.0011629745
  O         8.4941481008        5.7767538487        5.6091157422
  O        11.9509429989        4.1199582571        6.7574002994
  O        12.6184984096        0.8277367520        2.9600612707
 Si        11.1951807291        0.2346979576        2.5578221773
  O        14.0182181824        0.3404593515        5.0279576242
  O        10.4799940187        3.2263677409       -0.0124960048
  O         3.8777991654       14.6721098109        5.1969776708
  O         6.9262112863       14.7650540610        6.2583658701
  O         3.3748890406        9.0628290527        7.1672378457
  O         5.1110007083       12.8493151734        0.5763274131
  O         2.0654802614        8.8287988002        0.3177186657
  O         3.4638247856       10.8940759392        0.6546579119
  O         5.2038762269        7.9036599218        5.6903213838
  O         0.9882603172       10.3081683647        6.5175787401
  O         3.0528092852       14.1046242028        2.7956436695
  O         6.1132762816       10.5534890151        1.0074013258
  O         1.5146717528       13.8476415761        4.8632026367
  O         5.7619201275       10.3958088648        3.5448854113
  O         6.1964091421       12.6303099355        4.8537358349
  O         5.1153555527       10.5505862032        6.0250632837
 Si         5.1742421535       11.4081717472        4.6715906025
  O         3.7076534016       12.1255224460        4.4445331015
 Si         3.0255995360       13.6043079300        4.3339373511
 Si         6.6326169877        9.7961320100        2.3143552317
  O         6.3594646429        8.2277019539        1.9862508656
  O         0.9057374952       10.8863124774        1.5599906848
 Si         4.9315784513        9.1187748915        6.7273717419
 Si         1.9379628491       10.4498759257        0.3730871862
 Si         0.2228805288       14.1930792354        5.7775381611
 Si         4.9572054647       11.2977783371        0.2052253226
 Si         1.1782709465        7.5107271281        0.0213057476
 Si         7.3267912320       13.2922409349        5.7777437290
  O        11.7163656621       11.6968571801        0.1620773867
  O         7.5134721081       12.4430368053        7.1184636366
  O        14.5855493107        7.9883019726        0.5101018973
  O        14.9950939892       11.1318945512        4.1033624577
  O        11.3860052421       13.8802726908        1.4933484180
  O        10.3068869009        7.5903999486        5.4394147309
 Si        11.7765253876       11.2399536574        6.5863476928
  O        13.5148355937       12.2788989054        2.1289791999
 Si        14.4682300165       11.0234583056        2.5607700112
  O         9.1640387566        9.8892993140        4.8079751498
  O         8.2387789686        9.9833598195        2.4600060001
  O        13.1909227613       10.6439126144        6.0331265542
  O        13.5092157802        9.7373940818        2.4734932673
  O        10.9006811073        9.3191090478        2.9716424829
  O        11.1343017925       12.2828555898        5.5220059107
 Si        10.1385290448       12.9069216821        4.4080937437
  O        10.8827962193        9.8964133956        6.7587846819
  O        14.5881642234       12.7088866200        6.1806076152
  O         8.3218767314        7.9178686744        0.2387088109
 Si        12.3405860434        8.6460229067        2.6397715429
  O         8.4998802174        8.8328176863        7.0016329093
  O        10.6339549749       14.3412551908        3.8732832121
  O         8.7155723836       13.2714247523        5.0232261383
  O        12.1249098468        7.9107163356        1.2126944439
  O        13.4461484205       13.7628470981        0.0070102916
 Si        12.5169919507       12.8579758305        0.9621517102
 Si        14.6925881509       11.1641184856        5.7076852288
  O        12.9509892125        7.5832067472        3.7165756959
 Si         9.7431834241        9.0124347437        6.0269131419
  O         9.9862723186       11.7986848336        3.2234090000
 Si         9.5904632052       10.2276530045        3.2987692907
  O         5.1741265352        6.0463616344       12.1083833951
 Si         6.2253646258        2.1552029272       11.9221252621
  O         4.2112958499        4.7833345889        9.9027797885
 Si         5.4504339331        4.9869420138       10.9376139917
  O         4.7090696247        1.6419861060       12.1282964247
  O         6.0194088536        3.7118342763       11.7103398656
  O         2.3845485099        6.0187985613        8.4929820318
 Si         3.7299050608        5.1732407961        8.4068746692
  O         0.7516499394        1.7960959444       11.9664755902
 Si         1.3801413018        7.0058303012        9.2369908015
  O         5.7732334874        7.1721727558       14.4465065718
  O         6.6076673751        5.4487804395        9.9694347226
  O         7.1681321504        1.8187472710       13.1820606803
 Si         5.0912734287        7.3940203764       12.9700774120
  O         4.9372370009        0.1601466399        8.0231726644
  O         6.8516875490        1.9842965951        7.9254980145
  O         3.4794483765        3.8673782747        7.4943269149
  O         6.9306910255        1.4743015931       10.6382331402
  O         0.6480802204        0.0915501142       13.9141587112
 Si         1.0816323560        0.2798129478       12.3889769071
  O         2.6274613986       -0.0082855474       12.1970706849
 Si         4.2009988088        0.1214461681       12.0497010945
 Si         0.1753634776        1.5297386507        7.8884163573
  O         1.1612063972        7.1760771158       13.2813388500
  O         1.9832696459        7.2554465102       10.7211663864
  O         0.0017126325        6.1932379719        9.3155523526
  O         0.0861618315        1.3114046435        9.4718943723
  O        14.9206550013        3.7170644350       10.4720938538
 Si         7.8179583122        1.0068041087       14.4095864931
 Si        14.5874252372        2.1749291448       10.7860213822
  O         7.8322732283        6.7740266859        8.2570177292
 Si        14.0677329117        5.0262573352       10.0751420312
  O         8.4037881997        4.1387331514        8.4985061803
 Si         8.0314883709        5.5375319860        9.2757079054
  O        12.9464431247        4.4520421352        9.0755087376
  O        13.6043883115        5.6887410344       11.4558669742
 Si        10.7232066099        3.8885985657       13.3984097910
 Si        12.4873880289        6.0262677611       12.5286260660
 Si        12.0291704360        1.4133973689       12.3809683006
  O        10.9546455089        2.6153409162       12.4420619526
  O        13.0575014155        1.8139504771       11.1966999058
  O        12.1118965345        4.7033116332       13.3664840048
 Si         9.6500279917        6.2781853647       11.9169481158
  O         9.5750887529        4.9335733403       12.8699278233
  O         9.0667710789        5.9294285267       10.4596702848
  O         9.4642381528        1.2364351845        9.9015276979
  O        12.9538711309        1.1677742067       13.6824705203
  O        11.2166400404        6.5925467905       11.7169334361
 Si        10.3962968613        1.2190932919        8.5933972567
  O        11.4838499581        2.3745070229        8.7469465861
 Si         8.1193459863        0.4459070831       10.2921881654
 Si        12.5390491799        3.3187245674        8.0073490761
  O        12.9444520617        7.0903356251       13.6052582412
 Si        14.0458785256        0.3825417300       14.5789235816
  O        11.1193953183        0.0775588494       12.1976193877
  O        13.6864389546        2.3236137500        7.4314806080
  O         9.1559561982        0.1744341977       14.0074678177
  O         9.4036748544        1.8121791381        7.4226629799
 Si         8.1475487269        2.8658169085        7.4934128243
  O         3.5522568826        7.9054504739       12.8601302983
  O         4.7021902494       14.4244122297       10.6335506796
  O         4.8696669510       14.1879462517       13.2815623757
 Si         2.0757930245        7.9280926461       12.1776461938
  O         1.4839201552       11.1388159822       13.7943396714
  O         1.1600084940        8.3363171158        8.3383802294
 Si         4.6297511714       13.8548418573        9.1368142210
  O         5.2952040993       10.8853400291       13.5075780592
  O         5.7262942333       12.6889337279        8.9899314525
  O         3.2120142039       13.1166726614        8.9880358724
  O         2.3939273754       11.7225382057       11.2135371694
 Si         2.2057339998       12.0291292616        9.6114630831
  O         5.9350104049        8.5768777491       12.2910666346
 Si         1.2912318879       10.9819338801       12.1861616890
 Si         6.4334452710       10.0528119470       12.7023504847
  O         1.4789458860        9.4047600166       11.9527766943
  O         2.3053511897       10.6451866062        8.8207478978
  O         0.7209167432       12.6219728690        9.4069137229
  O         6.8298951741       10.7308310417       11.3057209741
  O         6.0248395408        8.8972589541        7.9143971207
 Si         1.9278413135        9.5994087838        7.6604159426
  O         0.1652536585       14.1815983642       11.4710891679
 Si         7.2918766781       12.7858500580        8.6601486410
 Si         5.2365646583       14.3259957306       14.8458483711
  O        -0.1242260410       11.6153356927       11.6395018864
 Si        13.1080541125        8.1191425380       14.7939618511
  O        11.6911597255       11.0455830887       12.4058389652
 Si         8.9094148004        8.7245560890       13.8068574063
 Si         7.5464133638        8.3666397352        8.1920067349
  O         8.4796674403       14.4487556138       11.6026686327
 Si        10.4414956521       11.7186826549       11.6320955990
 Si         8.1073492333       10.4494425190       10.3700098422
  O        13.1154099944       13.2730038328        9.9724385970
 Si        11.7128500980       13.1624336626        9.1571380696
  O         8.9925713662        7.5885850442       12.6209415405
  O        12.9322043192        9.5926729418       14.1815152911
  O         7.8213226242        9.8850647485       13.5170336787
  O         9.4805024780       10.4828510580       11.2198018836
  O        10.3146422361        9.4921366148       14.1010126962
 Si        11.6185069722       10.4819238450       13.9278050347
  O        11.1310165979       14.5791469215        8.5143702946
  O        10.7213465621       12.6095357731       10.3127551121
  O        11.8759826670       12.0451762367        7.9937359460
  O         7.7530589668       14.2812650579        9.0793085274
  O         8.0005225067        9.0631352467        9.5754617135
 Si        14.5407886171       12.9036399493       10.6196578320
 Si         9.6849100480       14.3014732026       12.6617370420
  O         9.8192904049       12.6990432145       12.7747393935
  O         8.1732862866       11.7054976651        9.3988613928
