216
15.062 15.062 15.062
Si      7.270535593499992     10.791258298000006     14.715610792400005
O       5.388995289200000      7.508544206100012      0.284347607899995
O       3.502717207600005     11.750579194900013     14.185150967200007
O       7.964346753300006     12.140524943199999      0.216696062800019
Si      8.611398343599999     12.933761608200017      1.437379737000003
O       6.551752065299989      9.850820328199994      0.782486002700003
O       4.830221006999989      8.619157211799994      2.598148073300005
Si      5.480659897999988      8.288412515999994      4.049930110000020
O       7.038123654599985      8.206668071100015      3.667691053999998
Si      5.240681483599971      8.907175946699994      1.039214654099998
O       7.587496879100001     12.826250797299991      2.680370533100005
Si      7.855630927600007     12.475673565800012      4.229335298100013
O       3.972603338900004      9.542519482500008      0.300424068499999
O       4.456894248199995     11.667316872500004      3.815881529500008
O       9.517360782400004      7.593445436299995      3.681208143800007
O       5.134737801499985      9.477066334600007      5.092374026599992
O       8.432188890100003      9.950385898000011     13.951066323800008
O       9.456589392300007     12.057353743700000      4.297591497600006
Si      2.899730312799999     10.713808128399998      0.231980468200013
O       6.084804011699995     11.353815736499998     13.783554746000023
O       6.921784602599979     11.251886718900010      4.704118118000012
Si      5.346553811899999     11.080434136600008      5.043085507900004
Si      8.126145045100005      7.288547521499996      4.416117570200007
Si      2.903053865299991     11.589737128300005      3.374061456900001
O       5.152761464200009      6.906458998000004      4.862121169600018
O       7.256700902200007     13.709146412100006      5.087255165000002
O      10.009923566299987     12.211046515999996      1.793344641999995
O       2.710844447799988     11.123593158899986      1.812560839200009
Si      4.793407838699985     12.179559958500004     13.276291835700025
O       4.827988063599998     13.776794581900003     13.466373250100009
O       2.259186242699978     13.060304215999993      3.364802846700006
O      10.636004011799994      9.953103758099999      2.979194556800018
O       2.240216370099998     10.736999747800006      4.611379698000007
O      11.342552290300000      8.686936697400000      5.091664373700013
Si     10.578845036099999     11.573439922899999      3.160353095400000
Si     10.854526902999988      8.465328215400010      3.602860434900010
O       1.518681291099978     10.181171212700011     14.650041167700012
O      12.107507705800003     12.132793856800006      3.350385107799995
Si     13.831271736500000      8.207679808100011     14.829187324000015
O      11.943565651699998      7.516556409100010      2.877283895000006
O      13.916551055700001      9.702728888600021     14.264484693500011
O      13.001192079100001     13.316354010100008      1.142985714899990
Si     13.567144287800010     12.992263562100003     14.734695976600007
O      14.885037768700002     12.066229162399999     14.576817147000021
Si     13.215761481400007     13.158570947500005      2.739105960299998
Si      0.140406942099998     10.621548755300008     13.929247292400014
O      14.242874814799981      7.903254069100010      4.052120814100012
O      13.785415761199989      8.377381919700012      1.377140552800008
O      12.520480814299979      7.423372030299999     14.244212788900024
Si     13.543615997699984      7.448471424300008      2.668717172200004
O      14.791660857599982     12.753781436800018      2.806546414399995
O       0.207911025100010      7.585888799200004     14.417003124700019
Si      1.021168643199983     13.711949724000023      2.589323029500007
O      12.433081874399987     12.223865950600018     13.956695364800010
O      13.856781724099985     14.346448780700001     13.945116444600012
O      14.859947176900008     11.192355083699995      5.330531564300012
Si     14.692086470699996      7.920900458600014      5.604859131400006
Si     11.357218154799991      7.006928729300007     13.149079485400021
O       2.929719678099997      6.804177389400008     14.269177988800005
Si      4.452914530400005      6.365349581500008     14.703461199600001
O       8.910536231000011     14.513743925099989      1.229733396299996
O       5.855290892599998      0.827961501399998     14.413557794400008
O       7.807981639800005      5.706844101800008      4.133149084500000
O       4.278413839299998      5.307384997400002      0.847935724300015
Si      6.391302558100010      2.326601701500000     14.591579769400019
Si      4.781644033799996      3.990714753999991      1.627862649800003
O       5.298259443899990      3.037479488000010      0.449561025300016
O       6.014394376899983      4.297251858400001      2.655781587700008
O       7.808967898500002      2.479234966799994      0.224203478800008
Si      7.546674411200000      4.371876615699994      3.229843708799998
O       3.498208941100001      3.275959313099994      2.342529884699994
O       8.579178380800011      4.304673604599992      1.946492987900007
O       7.807345677400001      3.104457537699997      4.217223703400012
Si      8.357339943799996      1.694597870199995      4.792521424400001
O       3.332948837199994      0.379958595900011     14.976567303100021
Si      9.084029082699990      3.210367363399997      0.847301724499993
O       8.589582793199988      0.685444110100010      3.535707600600008
Si      9.526131247700008      0.571862301900005      2.220798109300005
Si      4.472409326799980      0.238366613500011     13.821891962200015
O       9.784571842299986      2.025205031300003      1.638494977199987
O       3.024901991299995      4.450397140999993      4.557067137300018
O       5.362183798600002      5.876859805199999     13.442981343499998
O       6.633889891299990      2.959478278900004     13.148301356000017
O       9.777012050600002      1.926315952700014      5.534655419300004
O       1.372942861099986     14.030691172100017      1.029863391400005
O       1.375518147600004      4.838034849299997      2.792151681700006
O      10.156702386600001      3.652569755600001     14.797054087800021
Si      0.992494391599990      0.959332519700009      4.555886746700012
O      12.499680622299982      3.438945404099987     13.242579914500022
Si     10.939651942899989      3.864802448599998     13.382156097600001
Si     13.867760061500007      2.589518338600016     13.174778111300013
O      14.552511160399991      3.649878956700003      1.540742384000017
O       2.287843336899998      0.383596144600001      5.320463256200003
Si     14.555432431499995      2.136950951800003      1.074660130500013
O      14.164027143799995      6.026604960499988      2.246962140400007
O       0.977443293099981      5.391246755199991      0.302954984100011
Si     12.410597174699978      0.889255066800005      3.082913221900001
O      11.038372264099994      0.198381844800000      2.587299514600001
Si      1.737986391199992      0.327569070500010      0.197454792200021
O       0.747668579900011      0.062457468400017      3.269333436400001
O       1.377890256199988      2.451350147400004      3.987847646100001
O       1.132307962200007      0.377701299100005     13.781762033600018
O      13.139995003700001     14.576272215400000      3.527852547800011
Si      0.239657205200007      5.035114135400002      1.693928201499996
O      14.010180303700011      2.023735758400003     14.654726355100024
O       1.013064378899995      1.543802333100008      1.020204906100010
Si      1.332704250000004      6.446462845400008     14.194565146600008
Si      2.298858295199982      3.670091018799999      3.377628055900012
O      13.448501511299991      1.466179156599995      2.017981005900006
O      12.105348624199982      2.026260207100014      4.232786726300009
O      10.803218071199989      5.488275480600013     13.322461133000017
O       5.533758970500002     11.741345934400012      8.993717643300007
Si      5.757840512799977     11.225313861499991     10.507830662500014
O       7.306879806700005     11.597846116000014     10.722573495699999
Si      8.818752368199998     11.225601930900003     10.330834004100010
Si      5.464343139499974      8.167546480699993      9.910755570700010
Si      5.102725610400012     12.706057387600016      7.789400071800007
O       5.529907398299999      9.628277418299987     10.573758210199999
O       8.921717848900004      7.750574287100002      8.362433535000012
O       3.901375118700004      7.815428720800008      9.560598292500014
O       4.917440339600003     11.825872461899994      6.423202702800017
O       4.820529362599988     11.896194293199999     11.662127286700004
O       6.468825348399993      8.216305059900016      8.608371477399997
O       3.715710572899988     13.318447483600012      8.369712196700005
Si      7.530999999999999      7.530999999999999      7.530999999999999
O       9.146369205399996     10.094826444899997     11.447017657000012
O       9.152449224900005     10.330811668600010      9.002261906100010
O       5.841714664700010      7.044661663700014     11.034798358100023
O       6.153771788400000     13.929512850100007      7.421966018500003
O       8.050722539499992      7.821969925400006      5.978624455799995
O       4.046850519699984      7.030912322100011      7.195166156300012
Si      9.657931434499986      9.676402730900008     12.916758580400010
O       9.547566845500000     12.699262429000012     10.189248113000021
Si      9.986141110800004      8.947746698299998      8.719188606399998
Si      3.271287908399999      6.707234413100001      8.570279319600003
O      13.471224507899995      8.526784292000007      6.503008616100013
Si     11.885434216800000     11.855496750600008     12.520235425600003
Si     12.068990043899978      9.329320647800007      6.337392191000011
O      10.961610506300003      8.524114041700017      9.942321488599999
O      11.261022949999994     13.229501582599992     11.916683209100007
O      11.027502170000004      9.225266694899997      7.532407501200010
O       1.377072486999990     10.892770015299993      7.368278071700011
O      14.943562366099993     10.347588083700014      9.675108370300006
Si      0.352925542000003     11.412690453200010      8.553999688300006
Si     14.174852389099986     10.267307040199995     11.104373409200006
O      12.991787878500004     11.352016327499999     11.431818191400014
O      13.445698519700009      8.836205757100011     10.969738132100014
Si     12.337689184100000      7.800370850800006     10.411018651100006
O      14.094230534699996     11.894791387999996      7.756539515600003
O       0.897219397899998     12.617107063000004      9.476731493399997
O       0.204024021400005     10.490304396799999     12.299443381500016
Si     13.663971537300004     11.836628981299993      6.203160242000004
O      11.973879193799995      6.893339191100006     11.674804052200020
O      13.466344240200002     13.308304155399993      5.628462202700002
O      12.363657862200000     10.898159316599992      6.093579135900013
Si      0.606438822600002     13.990995930200008     10.272750057799994
Si     10.557964038600002     13.933867844800007     10.637341432300003
Si      1.154588757500006     10.449801956300011      5.782310978800004
O      10.934788575999985     10.647532631499997     13.000179707700008
O       0.918544643199993      8.861560803799993      5.784749325000004
O      10.171142454200011      8.142117671800003     13.160057769600011
O       0.513809459599986     13.940197188200008     11.891786429700010
O       6.612043920399997      6.240147628599997      7.120865059400012
Si      5.169999617500000      6.239285836700004      6.355884987000009
O       3.561776871800006      2.501338911400012      6.168199462700002
O       4.050912424699993      1.080899079300003     12.486257569900003
Si      3.258274672499997     14.740685322300003      8.990321866000013
O       4.120139096599983      4.923728388699985     11.516843040600019
O       3.413635762299991      2.663885102699990     10.339500201400021
O       5.839680024399986      2.173919388900006     10.816034591900012
Si      4.389602045399998      1.524725069400007     10.958268225000010
O       4.361582433099979      0.212226366300018     10.029591049599999
Si      3.175539246299994      4.263285785900010     10.396439019000004
Si      6.911490907299983      3.081924021099994     11.572779614800014
O       8.266061067899997      2.489379381200004     10.964533695699997
O       6.715153711100012      4.679226116600008     11.356945499100020
Si      5.520029173600001      5.671115420400008     11.840845392099995
O       3.508162893599994      5.167431152599988      9.084702907600015
Si      3.257987107999980      4.061888684999994      6.080578418400010
Si      3.536696122400004      0.905934034700007      6.192320527300016
O       3.194074738699978      0.628674384900002      7.721562028200006
O       4.683421389599989      4.718804645399992      6.417900708000013
Si      6.416312383599994     14.743781477899994      6.011842959100006
Si      9.801795191400004      2.029363733999997     10.946935861600016
O       7.344943227399999      1.012518153499997      5.872360935800015
O       4.904155464200000      0.208867447799992      5.637869009900007
O       9.939600846499991      0.369149748699996     11.037536602499996
O      11.660899216400004     14.254353785700003      9.474367454800007
O       1.681551114499997      6.802033554399999      8.288620496899991
O       1.613755268699995      4.377757604700003     10.728915979899989
O      14.699547270599993      0.759461332899996      5.477581465400004
O      10.466692562200002      2.562788035700000      9.556675585299999
O      12.445931109599982      4.209669158299997      9.086894931900014
Si     13.504581158699985     14.853224802900007      6.087314743700004
O       1.934133345299985      4.603403778699994      6.880687514100009
Si      0.438541207900000      4.790387924000008     11.733914097200012
O      11.978308455499992      0.360901625400003      6.019130102100012
O      12.911924031399987      6.806808968300003      9.256491646400002
Si      0.858589606400006      5.735279542299993      7.356446049900008
O       1.053908013599990      5.927187417700006     12.694229625600009
O      11.657391338299988      2.728486929600010      7.042149029500001
Si     13.029744577399979     15.051274679500001      9.076994209700004
Si     11.369896630400000      1.821355416200011      5.708045623700021
O      13.704464223600006     14.731582610699999      7.667250164200022
O      10.329987945799999      2.884983111099999     12.232471801100012
Si     14.904982439499999     15.004632669800015     12.927472342500014
O       1.857192207199977     14.874678069300000      9.782102097800003
O      14.096379516300001      1.226771693300009     12.298467717100014
O      14.724993978699995      5.085184927599995      8.221568698900013
O      12.764540221300006      1.572592692700016      9.158591347500009
Si     11.817924367200000      2.783169035700008      8.676064173499999
O      14.248991890700005      5.229485411500005     10.814028546700001
O      15.027846280399999      3.590611134900011     12.693750772400016
Si     13.586960264699977      5.326532514300014      9.339586815300001
O       0.124449902099987      6.474560586599996      6.112417931299998
O      14.229832841699999     14.639634057400009     10.032628522999991
