216
15.08 15.08 15.08
 Si         4.4445106487        4.6202121289        5.9185182250
  O         3.0613185623        3.9327680866        5.5682939874
 Si         1.7805604337        2.9952205067        5.7404479860
  O         1.6476241114        2.1187679870        4.4023700344
  O         5.5500716432        3.5530427784        6.3784701693
  O         4.9497790326        5.4216765892        4.6506683352
 Si         1.6282518288        1.0594326344        3.2021507446
 Si         4.8962126242        6.2400155535        3.2868617014
 Si         3.8460534632        0.9839081001        1.0072699038
  O         5.1858408196        1.8760091182        1.1794398658
  O         5.9091871644        5.4063494619        2.3432358974
  O         0.7535675157        6.5969800312        2.8235079422
 Si         2.0707470072        6.8179039913        1.9321225104
  O         2.9934274703        1.0961747207        2.3544807459
  O         0.4776509675        3.9145242053        5.8885100260
  O         3.3806238456        6.3628061708        2.7500483505
  O         6.9866849004        1.4856177301        6.4449988910
  O         6.8387794464        3.7762656407        0.4799051337
  O         2.1195556328        5.8872509028        0.6222203196
 Si         7.2466765310        4.8750696105        1.6037395530
  O         0.4228829689        1.3358764840        2.1884021522
  O         2.0341349989        2.1141981581        7.0733544570
  O         4.2409799736        5.6434272978        7.1504879456
 Si         5.8840908298        2.2762989032        7.2881915204
  O         6.4526562399        7.0920671227        7.0744958313
  O         0.2226502267        6.5123520551        6.3390414152
 Si         6.0802068385        2.4593201682       -0.0350299442
  O         7.9324140100        6.2016042275        1.0231509499
 Si        14.5534166103        5.1706461381        5.8447136533
  O        14.0560484146        5.4873468548        4.3434987008
  O        13.4317019199        6.1414853309        1.8872345417
  O         8.4989893515        4.2314670640        2.4303568654
  O        10.9931418012        5.1853569850        1.7199545677
  O        12.4797121597        2.9784903099        5.1151921616
 Si         9.9981426739        3.9108156943        1.8659793319
 Si        11.9652926080        2.2786477481        3.7389225407
 Si        12.5794382629        3.2633199844        6.7233815966
  O        13.1099943802        2.1989477788        2.6083365920
  O        10.6805968283        2.9276019112        2.9762042486
 Si        14.0267486767        1.3680727967        1.5686641143
  O        11.6118700466        0.7930573160        4.2338003536
 Si        14.2591678485        6.5808599930        3.1841109321
  O        13.2794647092        4.7284628002        6.7565712411
 Si         8.3338295122        0.6421423100        6.5934416218
 Si        12.2632929483        5.7326464800        0.8723207428
  O         9.1213081793        0.7029082449        5.1817032589
  O         9.8181953052        3.3756587114        0.3168413011
  O        14.0601226636        2.1932655169        0.1660724053
  O        11.0838296571        3.2067566828        7.3924956140
  O        11.8433185038        7.0487481149        0.0140480340
  O         5.3425284253        7.7695562475        3.5389128788
  O         1.4941929329       14.6896723948        3.8519226128
  O         4.3297309563       14.5443983714        0.7033923979
 Si         3.0446840597        9.3032727204        6.8262115651
  O         2.2077406380       10.5838080325        6.3019478188
 Si         4.9661373336        9.0780664116        4.3959225597
 Si         1.3643306071       13.1632388026        4.2476039095
  O         4.1625192929       10.1516533832        3.5323255446
  O         2.6464713126       10.9184421939        1.6434613086
 Si         3.5457082643       11.4529865167        2.8568198754
  O         6.3566928175        9.7449589170        4.7946144612
  O         4.6315014770       12.4707601716        2.2712312952
  O         4.0082908671        8.7181274347        5.6582040309
 Si         1.4679435264        9.8730930807        1.3734545114
  O         2.6672877145       12.3227460227        3.8622637010
  O         2.0523465388        8.3816284159        1.5050377466
  O         1.1865511871       13.0232182277        5.8301752895
 Si         1.1924667109       11.7470802645        6.8001567315
 Si         4.8841556268       13.0262600213        0.7876536174
  O         0.2485846900       10.2024025402        2.3595449413
  O         2.0614828085        8.1005334536        7.3137852752
  O         6.4396355429       12.7190737488        0.5422488396
  O         0.0732765783       12.5657370014        3.5290693369
  O        10.9936215359       11.3182819385        5.5781646510
  O         7.5433173043       11.7078098630        5.9768224323
 Si        10.2839036365       12.8754966680        2.3139143862
  O        13.3560634103       10.6790257761        3.7746682344
  O         9.5788542580       12.3359734425        7.4703548745
  O        11.3318701159        9.1866668079        4.0850775667
  O        10.8377413116       13.9716598793        5.8169435166
  O         7.8635125421       14.2121557771        6.9044537592
 Si        10.5012556669       10.5638883585        4.2312167110
 Si         8.0188395883       12.6424867988        7.2030097725
  O         8.1764376304        9.1236859757        6.5063140195
 Si        10.3840962616       14.9399605986        4.6319138908
  O        13.5013815214       14.9206605902        1.4159465048
 Si         7.7498592377       10.2130629340        5.3926993541
  O        10.8420804859       11.5372770724        2.9965218434
 Si        14.3508341774       11.4173508451        2.7623218481
  O        11.3533499043       13.3498337815        1.1865659802
  O         8.7902843790       12.4827572349        1.8727108602
  O         8.9317247295       10.2294293254        4.3061932239
 Si         8.0276023458       12.5593899643        0.4728867735
  O        13.6613640636       12.1856649665        1.5169295992
 Si        13.8684177234        9.8673483213        7.2573690854
  O        13.1157708370        9.2688445070        5.9710842102
 Si        12.9290177182        9.2380746653        4.3705085121
  O        13.7368181806        8.0219486783        3.6996937049
 Si        10.9015577677       12.5714446245        6.5809623486
  O        14.8185313819       11.0746951188        6.7708993012
  O        10.0361760003       14.0587327118        3.3607185079
 Si        12.9443667420       13.4976301465        0.8666198865
 Si         3.4078358703        2.7297232884       13.7090387468
  O         3.0614167764        2.1185778595       12.2519281422
 Si         3.8662145635        1.6827481580       10.9299809927
  O         5.1837893152        2.5936899519       10.9107400998
 Si         6.6477057537        2.7731975238       10.3083257736
  O         2.9828756940        1.8837887516        9.5841612494
  O         6.0459150092        5.5060381710        9.1195614587
 Si         5.4316738734        6.6847819612       13.1056693791
  O         5.4907079944        5.9001554431       11.6960103729
  O         4.2473813933        6.1348525452       14.0523684921
  O         2.6085604149        4.1446026075       13.8266640276
 Si         2.6880328894        5.7191549128       14.2081126590
  O         6.5274950274        2.6660469638        8.7110115986
  O         1.8072049628        6.7614638768       13.3430433777
 Si         6.6484362647        5.6182103741       10.6122855676
  O         5.0230306936        2.9068406168       13.8926163478
  O         7.2415823287        4.1633369818       10.8417098263
 Si         3.0089256700        1.2977151657        8.0626209403
  O         6.8388986160        6.5187386949       13.8277278029
 Si         5.3138289290        6.4214205599        8.0280987143
  O         7.0626289027        1.2650285437       14.5313577343
  O         0.5511567270        7.3099060080       11.2019088316
  O         0.3820710146        6.4469534169        8.8697192407
  O         2.9950268606        1.6429632928       14.8535808163
  O         4.3981861941        0.1682981686       10.9856670476
 Si         0.6148675061        7.4235721375        7.6038779942
  O         4.5420574681        1.4071963711        7.5369418379
  O         7.7718377659        1.8041255848       10.9159716852
  O         7.8453464885        6.6743493368       10.7556022152
  O        14.6136142492        4.9205112504       10.8356993929
  O         9.6439153544        1.0138841203       14.3613591208
 Si        14.6817345636        6.4333815468       10.2866479938
  O        11.7863945421        2.3652126325       14.0486517754
 Si        13.1690658716        3.1464237678       14.2897237592
 Si         9.3394002030        2.1762436907       11.1557604140
  O        11.6095148657        1.1750584537        8.9496151953
  O         9.8904428086        2.9082789787        9.8102932689
  O        13.8182915000        3.3814862880       12.8240293158
 Si        13.4142342265        3.9868264176       11.3757721402
  O        13.1901500411        2.8187272717       10.2898911317
  O        12.0956595963        4.9517569719       11.5387526419
 Si        13.1344728766        1.6566026901        9.1600962196
 Si        11.8054260696        6.5260170687       11.1870831453
  O         9.6545331452        2.9107994526       12.5828227176
 Si        10.4189582485        2.1525852524        8.4589714072
  O         9.9811471928        0.6935138992       11.1616328012
 Si        10.1972252718        2.4865383973       14.0856660460
  O        10.4758578395        6.7463805358       10.2837993052
  O        13.1409655112        6.9931804525       10.3679884051
  O         9.4347088478        6.7562847982       14.0428158158
  O        13.9826379622        0.3878417642        9.6643472354
 Si         8.2593157647        0.2358569374       14.1493332834
  O        11.5460247717        7.3805179724       12.5481077976
  O        13.5025293999        2.2812873117        7.6825531381
  O         9.2649271764        1.2620695209        7.7703224617
 Si         8.0168750333        7.0486810373       14.7673363060
  O        12.8668739294        4.5679263697       14.9984265422
 Si         9.0493996061        7.4254962195        9.9832427852
 Si        10.8152076795        7.6123732792       13.9748763169
  O         2.5147423718       14.8422734447        8.0920848805
  O         4.5601135786        7.5569247484        8.8760614050
  O         4.0042971299        9.8851469363        8.0100125640
 Si         1.5129805767        7.9441019076       12.2767964037
  O         4.0824551960       12.1778529286       14.7742469972
  O         5.2561876057        8.2470945769       12.8004115500
  O         6.5893577665        9.1815720188        8.5587205287
  O         1.0137438434       14.0550558666       10.1319095922
  O         4.9481595252        9.5877202313       10.4949033272
  O         2.9180670784        8.4875229062       11.7013947265
 Si         4.4291294945       13.6508770963       10.9663692571
 Si         5.0255582986        9.1019649870        8.9831826109
  O         3.9314003879       13.1942058140       12.4131041324
  O         5.8775143680       13.0493383698       10.6818408471
  O         3.4489127645       13.1122823291        9.8185754269
 Si         2.1268281455       13.5980286617        9.0515132011
 Si         0.7885559802       10.6543540269       13.5164280121
 Si         3.5960060506       11.9022996031       13.2868395447
  O         4.3201786810       10.5974739891       12.7277775585
 Si         4.3367761720        9.2219815766       11.9297467719
  O         2.0298921735       11.6157566599       13.1948150409
  O         0.7177311429        9.2669974105       12.7208914737
  O         1.5748583821       12.3262729961        8.2441115922
 Si         7.2716240288       12.6093386671       10.0546148336
  O         7.1431864159       12.2614757466        8.4911065730
  O         0.8656922022       10.1376831131       15.0147598135
  O         8.4794343737       13.9854423574       14.9939578021
  O        11.4683475542       12.0233923978        9.9753129428
 Si         7.5092952005        8.2082294709        7.6238702966
  O        14.0682577261       13.8317218291       11.8463564498
  O        13.2735632554       13.5098164369       14.3694441822
  O        14.6077727143       11.5564091747       13.1992114921
  O         8.5527657522       11.2363726547       14.7621681228
  O        12.1693265052       12.7147142677        7.5369191971
  O        14.6940090997        8.6453969903        7.8649724484
  O        10.1402928465       10.7591054457       11.7898170605
  O         8.0808654879       14.7717774153       12.6430662497
 Si         9.1346615733       14.4396725640       11.4663518132
 Si        12.6415599843       11.9857287499        8.8848357322
  O        10.2062633348       13.3534612920       11.9342965194
  O         8.3255410243       13.8259539421       10.2119068750
  O        12.2791204444       12.0037478646       12.4850877066
  O         8.7059678024        7.4567835871        8.4056528875
 Si        14.4861507618       14.0575273679       10.2889069362
 Si        11.0285333392       12.0468351955       11.5213034119
  O        12.9646622876       10.4518231016        8.4698988726
  O         7.7736745787       11.3067880271       10.8367538505
  O         8.0952433110        9.5883630936       12.8002200461
 Si         8.7063248697       10.1579261994       11.4297167639
 Si        13.5872250283       12.7658064386       12.9796000365
  O        10.3066274310        9.1551646802       14.2239022857
  O         8.9660314804        8.9537566341       10.4323234558
 Si         8.7547963290        9.7156400016       14.2716171459
  O        13.9078656293       12.8062208754        9.4375159829
  O         7.9360072769        8.6270040149       15.1523729878
