216
14.912 14.912 14.912
 Si         2.6682352936        2.3463421020        3.7809420682
 Si         6.4778364959        4.2183835021        5.9388061422
 Si         3.7059977325        4.9275429936        5.1961069564
  O         3.1451215314        2.1460441390        2.2368361304
  O         5.3112749649        4.7932221335        4.9685599970
  O         2.9774964941        3.9101181750        4.1368448134
  O         3.4808152466        6.5488152978        5.2210977574
  O         3.4042843319        1.3241370001        4.8069458358
  O         1.0724191932        1.9822919741        3.7355225047
  O         3.0618236658        4.3742624099        6.5790653345
  O         0.7502989585        1.7392791347        1.1632327858
 Si         2.2749179163        2.1350533348        0.8657362225
  O         4.7974942243        0.6628547204        7.0542247921
  O         5.9666298550        2.7491225735        6.2952202688
 Si         6.7871238139        0.8927841265        0.2859345634
  O         5.1973142401        1.0659877547        0.1544398695
  O         6.3796002277        5.2142715089        7.2156872951
  O         2.3032418514        0.0067820748        6.8031759428
  O         1.2598630269        2.3789682712        7.1291389280
 Si         1.7776558644        3.8886443619        7.4389224315
 Si         3.6844580401        0.2221801841        5.9858537604
  O         0.5593015010        4.9025164808        7.2922205069
  O         7.2083750775        0.0788141042        1.5912407123
  O         2.2316655271        3.5692457829        0.1720905848
  O         1.4101942826        5.9530447512        0.1657793494
  O         2.7338470580        0.9985439679       -0.1498067418
 Si         0.0300792363        1.4953492947        2.5719800639
  O         7.4768357784        2.3459562454        0.3216809798
  O        14.5838319927        4.2245031494        0.8288588751
  O         7.9772393645        3.9890385703        5.3994267300
  O        10.6147856881        3.9805534516        6.2170713815
  O         9.8468719720        2.2732272266        4.3227765335
 Si         9.5407227947        3.7411857757        4.9932606470
  O         9.7838465907        4.9688941387        3.9653185297
  O        13.2530321772        5.1238559105        2.9020201715
 Si        13.3626247729        3.9002687863        1.8175371285
  O        13.6607086430        2.4873765557        2.5785528515
 Si        10.2397019693        6.4778827917        4.3216487806
  O        10.8564437423        6.4788923249        5.8150120094
 Si         9.5052479546        0.7310530509        4.7863130094
 Si        12.9323238761        6.7091286289        3.0115954368
  O        11.3432210336        6.8855391158        3.2172518809
  O        12.0253455078        3.7280390983        0.9218482805
  O         8.5313428038        1.0694066465        6.0335920020
 Si        11.4026910507        5.3043199689        6.7809748083
  O        13.0183445153        5.3838091340        6.6281451388
  O        13.5101734978        7.3798334458        1.6524860068
 Si        14.2814553583        5.9739278138        7.4726473229
  O         9.5382300695        4.0431300040        0.1576481913
  O         0.0068578178        7.4222061283        7.1128686268
  O         5.1291711107        9.4287528347        0.0805203851
  O         0.8278063069        8.4473316199        0.4895926385
 Si         0.7736418902        8.8103208952        6.7891386371
  O         6.1412480703       11.6892684214        0.7482086569
  O         2.3034284962        8.6142400769        6.2971791762
 Si         3.7539401181        8.0228361742        5.8926073381
  O         4.3061367771       13.7492999733        5.4605632038
  O         3.5801427939       11.3501113280        1.0802605782
 Si         5.0243959663       10.5966335916        1.1559516383
 Si         3.2713186644       12.7312164891        1.8772447967
  O         3.8939041276       12.5047630766        3.3236567738
  O         5.3655702987       10.0281227396        2.6281786932
 Si         5.0652514704       12.8584337816        4.3617323821
  O         4.6402061732        8.9447069950        4.8875828786
  O         5.6253261821       11.4260025590        4.8819980940
 Si         5.7212027304        9.9448837936        4.2010395807
  O         1.7433330922       13.1708484886        1.8999680311
  O         6.3082407488       13.6779599459        3.7226898770
  O         4.0632222793       14.0060018033        1.3085929923
  O         7.2661981080        9.4475943058        4.3100444650
  O         4.5652480584        8.0473267556        7.2959223894
 Si         0.1585209213       13.3763807932        1.8753319982
  O        -0.0000849146        9.4576990685        5.5371743153
  O         0.0869085739        9.2001485765        2.8380947501
  O        12.1608531324       11.6939038841        1.9592496115
 Si         8.8495702833        9.1341823268        4.2327943068
  O        13.5706774483        7.6151339934        4.2224084665
  O        12.4206709914       13.0767983661        4.0479487592
 Si         7.6018065109       13.9992747405        2.7954067228
  O        14.5839160974       13.1645962508        0.3317937858
  O        13.0154032464       10.3623593423        4.0570768080
  O         9.0296547975        7.5350688065        4.3871797548
 Si        13.0242113497       11.8047906473        3.2941948205
  O         8.1254966902       12.5917303081        2.1436255140
 Si        10.1828686327       10.9364188479        6.5676095247
  O         9.6278945592        9.9491426673        5.4046434748
  O         8.9508365791       11.7629868374        7.2050491202
 Si         7.7542159839       11.7263111848        0.8021615196
 Si        12.2828369484       10.8121743876        0.6329148629
 Si         9.6295837868        9.3963108746        1.1719730963
  O         9.9356042193        7.9469508486        0.4826059501
  O        14.6544208065       14.8071107825        2.5606108467
  O        14.5103850311       12.1928366168        2.8186655192
  O        13.5018548616        9.7750929669        0.7440165426
  O        10.7719326145       14.7441060287        5.2987294881
  O        13.0187913936       13.8297200250        6.4036331134
 Si        14.4594566442        8.6818321880        1.4084915495
  O         8.2798566044       10.1888927806        0.7556017221
  O        11.1062661652       12.1015224884        5.9657340335
 Si        11.7771347299       13.4718950203        5.4528660184
 Si        14.1155142275        9.1568677203        4.1977048249
  O        10.8389426648       10.1945429321        0.4962471641
  O         8.7612843508       14.7483109768        3.6565185605
  O         9.5446450722        9.4392328498        2.7910171615
  O         4.3990231307        4.7226363339       10.1926033482
 Si         3.7336193468        3.4297588099        9.5849765281
 Si         2.0923530931        1.4885461017       10.7865238476
  O         3.4040331690        2.4101855152       10.7666325241
 Si         6.4492425474        5.8752160914       13.4135709106
  O         1.8229821367        0.9157680237        9.2874842300
  O         5.4709015366        5.0648873737       12.4145639592
 Si         5.8528844394        4.8351303890       10.8501414381
  O         6.5447106278        5.8915257050        9.8524379480
  O         2.3278759902        3.8825944731        8.9465332047
  O         4.8005733670        2.7314196484        8.6149383387
  O         0.8439318551        2.3947163228       11.2660567232
  O         5.7075464191        6.9637364809       14.3248021469
  O         0.4278390973        7.2309144936       10.5333930517
 Si         7.0699412735        6.1070273828        8.3546442314
  O         7.0959440272        1.4150256895        8.2087885347
  O         6.8586283105        3.5739067480       10.7720280665
 Si         0.9242584999        4.4624329313       14.7692520870
 Si         1.3031252342        0.8676930922        7.7527326927
  O         0.4938907543        4.1412213872       13.2567609253
  O         7.2042874117        4.8817203985       14.4154681938
  O         2.5777454787        0.3139772131       11.7705151173
 Si         1.6586394423        7.4087416026       14.4998859076
 Si         5.6763553325        1.8736576908        7.5922945959
  O         6.9590473054        1.1599759499       11.6065765030
  O         7.1134694338        0.0030052399       13.8949973526
  O         1.0739070066        7.3738291735       13.0099480274
 Si         3.9799740636        0.0165520843       14.9200225812
  O         7.3596767407        6.5478269293       12.2585516493
 Si        14.7608910314        3.4723956026       11.9438920058
  O        14.3366370900        4.7366741940       11.0202114234
  O        11.4396984969        5.9003426015       14.5847170937
 Si         7.7970446240        2.4998632773       11.4938948998
  O         8.3505523960        3.0658249945       12.8976306966
  O        13.6847360544        6.1191713415        8.9561668688
  O         8.6151101998        5.7170886456        8.2734569812
 Si        14.0638952059        6.2443850309       10.5033381002
  O         9.7109616770        1.9982282361        8.2248222075
  O        13.4565500672        2.5838518542       12.2645200943
 Si        11.8588406665        2.4803674138       12.1709241983
  O        11.4268784372        2.7364363969       10.6000056075
 Si        10.3423222929        1.8566261433        9.7354804907
  O        11.2809909769        3.5591097069       13.2349813813
  O        11.3622452924        0.9787330851       12.5787959087
 Si         9.8623233879        6.4208320867        8.9827158817
  O         9.0341214369        2.0656851572       10.6106688979
  O         9.5334436884        6.4598123362       10.5760315998
  O        11.0869079838        5.5583559140        8.3646505209
 Si         8.1446987466        3.5713445119       14.4177843036
  O        11.0155710665        0.4123029003        9.6182718649
  O        12.9229453455        7.0410488437       11.3447721607
 Si        11.0804862094        4.3107657744       14.6614672031
 Si         8.7738542439        7.1447870079       11.8334549154
  O         9.6144472943        6.7109964200       13.1039544668
 Si        10.7083197302        7.2713176090       14.1116087903
  O        14.7641262628        0.1651413103        7.7862195906
 Si         8.5506818689        1.0105559370        7.6338038146
  O         6.9471766117        7.6999358042        8.1199387759
  O         3.2106929380        7.7887663653       14.4903063971
 Si         6.7754301871       14.6675664594       12.3249989454
  O         5.2933622979       14.3149017921       11.7673844412
  O         3.8107785300       13.9152102219       13.6822553132
 Si         4.7026254983        8.2017592901       14.0704021787
 Si         1.3143184824        8.0549476744       11.5831323315
  O         2.8226664000        7.8744090308       11.0918052359
  O         5.0583315919        8.4443220561        9.8472511467
  O         4.8214472173        8.6149291127       12.5169541667
 Si         4.1195317730        8.8203704494       11.0878162938
  O         2.2397650465       11.6766368727        9.1166692364
 Si         6.3681512078       11.3360680175        9.3441947656
 Si         3.4696939813       11.7249110988       10.1737094660
  O         4.9154048910       12.0230698428        9.5186752707
  O         3.1541822821       12.8411427043       11.2752232956
 Si         3.7111470112       14.1055072603       12.0844451354
  O         3.6394963511       10.3358039160       10.9415578055
 Si         5.6473262397        8.6287943051        8.3502468812
  O         6.1288144438       10.1775090009        8.2080618988
 Si         0.6855729945       11.2989166927        8.7938127949
  O         0.9995037955        9.6322823993       11.7674408891
  O         6.9528923255       10.6067717493       10.6928098582
  O         0.6679877540        9.8568529079        8.0326213037
  O         7.4408570072       12.5020992416        9.0388152473
  O        13.4018478269        9.6936554169       11.9323706379
 Si        10.5209485941        9.3695950527        9.1144622078
 Si        14.6646515537       10.6703188134       11.6887528076
 Si        11.4605459325       13.7940072628        9.7243089200
 Si         8.8738657579       12.8503081775        8.3927068070
 Si         8.9281938913       12.7018307019       12.9508151269
  O        10.2615152073       13.5823528782       13.2499461911
  O        14.9068363373       12.4346787387        7.8626025213
  O        12.5901873109       11.6825505692       14.2522895960
  O         7.8660177181       13.5090053268       12.0072180545
  O        12.9979501382       14.0217419703       13.4150823307
  O         9.1138350987       11.2764676247       12.1765730523
  O        10.2519853151       12.8189827844        9.2691641236
 Si        12.3279671853        8.5155266223       11.7046685922
  O        11.5973562646        8.2862864383       13.1648913117
  O        14.7473788926       11.2631698201       10.1825177973
  O        14.6634111031       11.9175174620       12.7577232271
  O        11.7721200617       13.5068290395       11.2596685204
  O        10.0264360305        7.9535103737        8.5344793491
  O        12.8382566341       13.5844002309        8.9428208196
  O         9.3006105326       10.2521823199        9.7119040205
  O        11.5080945032        9.0304042766       10.3724467789
 Si        13.7854689193       12.7013432257       13.9060337579
 Si        13.9015323909       13.7104838534        7.7441520113
  O         8.3548300495       12.4296419081       14.4172085216
  O         8.8488111725       14.3883792964        7.9567371783
  O        11.0052796300       10.1841465880        7.7820176937
 Si         8.4792529158       10.2402459766       11.1084927362
 Si        11.5952191135       14.2827041690       12.6554649662
  O         8.6153496155        8.7373342465       11.6806926430
