216
15.004 15.004 15.004
  O         2.0248800749        2.5015786685        1.4831434761
 Si         1.1174817266        1.2927341432        5.4870534414
  O         4.3827946894        6.3223594758        2.7334534188
 Si         5.6478447598        5.3046267402        2.9678427488
  O         5.7858560881        4.4623848648        1.6166654746
 Si         2.8689845288        6.4893391472        2.1327016514
  O         2.0313337461        2.2755123000        6.4092400068
  O         1.5634530814        1.4008801669        3.9273214814
 Si         1.6408452209        1.1626077360        2.3181422905
  O         5.2348902361        4.3722344037        4.2289704226
 Si         5.3772734281        4.4219793379        5.8411988016
  O         2.3405389070        5.1380970941        1.4034381584
 Si         1.2992187091        3.9163571040        1.2125704370
  O         6.9684877359        4.2098315715        6.1096681157
 Si         6.6428482547        3.7887513241        0.4636835858
  O         4.9248507338        5.8749369280        6.3354149776
  O         4.3708038139        3.4256329211        6.6408795024
  O         7.1710679556        5.8614788496        3.2087205589
  O         1.8117806366        6.8049837167        3.3438089730
  O         0.3945980058        6.5648588297        5.6002996318
 Si         0.3539341473        6.9575924435        4.0287898133
  O         0.2308460415        0.5454496821        1.7937932670
 Si         0.1740000469        7.3183142985        7.0183025446
 Si         5.0627940573        7.2655858618        7.1040370200
 Si         6.5838599260        0.1588329760        6.9703121562
  O         2.8252151339        0.1496975928        1.9561386761
  O         0.1579122254        3.9122076456        2.3390560539
 Si         2.9702927317        3.1310635557        7.4266891699
  O        14.5641990303        1.7234467758        5.6195677326
  O         8.0455966665        3.1985480272        1.0129691319
 Si        10.9094520269        2.7400588162        6.8519603508
  O        14.2271085776        6.1481345798        3.2055452991
  O         9.6662749586        3.6883144101        6.4195969460
  O        10.6437307387        2.8850392870        1.0858745413
 Si         9.2340361035        2.1077250983        0.8853342476
 Si        13.6355696788        3.0240827877        5.7697906310
  O        13.8949115303        3.9970837040        4.5342222954
 Si        13.9007337905        4.5867333573        3.0494521246
  O        12.5821686365        4.3872567347        2.1273718633
  O        12.0476464325        2.7380377162        5.7119557267
  O        13.0515380908        1.9708840752        1.6487299374
 Si        12.2333865041        3.2026457878        1.0649649690
  O         8.9019132873        0.8820903343        1.8728685498
 Si        13.6632552825        0.5247000425        1.4478810298
  O        10.3902176692        1.2487945002        6.9620103869
  O         9.9259930539        6.8822966587        2.8900342621
 Si         8.2703920951        7.0374177343        2.9694389974
 Si         8.2996981321        4.3245991340        7.0295274161
  O        12.0319045633        7.2003026066        1.0959781889
  O        13.9758025442        3.6715047814        7.2251180981
  O        11.0342561164        6.9538707414        7.2549721394
  O         8.1152250124        0.1479100393        6.4956128532
  O         8.5951626740        5.8723545582        7.3479543577
  O        13.6061871839        7.5869196230        7.3286120818
  O         5.7164859242       14.8425925936        5.6389739423
  O         1.1676310164       14.7702738288        6.0179040778
  O         2.7207551262       13.0664497497        7.1087854893
  O         2.8881048655        7.6574633957        1.0056474203
  O         6.9702366006       14.8557576709        3.2852806926
  O         6.2705544676        8.0531759960        6.4021220197
 Si         3.2533950023        9.1739747298        0.5578314729
  O         4.7531783307       13.6806944288        0.8771393960
 Si         1.1569238386       13.3769963292        6.8241624173
  O         4.5298436979       13.9114251573        3.5111055765
  O         6.5724425953       12.5736049844        4.4588729930
 Si         5.9432044250       14.0541033911        4.2387667990
 Si         3.7265426243       13.8436828743        2.1127310127
  O         2.7408356385       12.5908551133        2.1888412628
  O         2.5841381898       10.0719252318        1.7187817841
 Si         1.7544451783       11.3508170459        2.2109368475
  O         1.0923040540       11.1763139319        3.6778203734
  O         0.5430201986       11.5759676193        1.1680741824
  O         3.6649779655        8.0416769105        6.9469329473
  O         0.3962349838       12.1928764931        6.0118409531
  O         2.8857755845       10.5277384430        6.9609138664
  O         4.8667923890        9.3052589978        0.5572971492
  O         7.3593626748       13.7517417973        0.9462726377
  O         1.0811519580        8.6640989364        7.0369577768
 Si         6.0877813750       13.1666947753        0.1312827032
  O         7.2777653007       10.1543045661        5.3092196703
  O         7.5746169075       12.2054237072        6.8189372462
  O         7.5824166738        9.6868368435        0.1555234083
 Si         7.6478779268       11.7030669672        5.2998582412
  O        11.4881481861       12.6634567489        3.6849708172
 Si         8.0967428649       14.5161640508        2.1709568712
  O        10.0742226319        8.9854197751        1.4083790319
  O         7.9057233768        7.5802415689        1.4848887954
  O         8.8350787571        8.3623424280        6.6510413219
 Si         7.5844752356        8.6178204267        5.6546284661
  O        14.1439760072       12.9748436075        3.9087203083
  O         7.9673656547        7.9814999418        4.2291163961
 Si         8.7264325121        8.6120938067        0.5313896870
  O        10.0970308274       14.3798545739        5.0757068814
  O        12.0246840013        8.5875300782        3.3524908089
  O        13.6604597340       10.5591853114        4.5452768852
 Si        14.8492029172       11.6880109891        4.5882719056
  O         9.2181333734       13.5172360701        2.7322390054
 Si        10.0022788843       13.1229436198        4.0710654914
  O        14.7626171940        8.4361349998        3.9862895956
 Si        11.0474304006        7.9056051734        2.2068467808
 Si        14.0128690581       11.0963963804        1.1419113600
  O        12.8136731012       14.6601061533        2.4997357256
 Si         9.6920898320       14.8945778069        6.5359264855
 Si        12.8442523116       13.1371431283        2.9712807236
 Si        13.4962070268        9.2994553185        3.5182798718
  O        13.0462338551       12.2607077128        1.6418288427
  O        13.8366586659        9.7757862932        2.0262828158
  O         9.1480398092       11.9448959412        4.7676782942
  O         5.0053778122        3.2109300597       12.3544908210
 Si         5.6563635752        3.9641688726       11.0860624928
  O         4.6960140417        5.0805452855       10.4751306300
 Si         4.4676446809        6.6053758469       10.0184611931
  O         5.9387140173        2.8910256622        9.9256019523
  O         3.1133167303        2.3367992518        8.8388610504
 Si         2.2548121014        1.6559300094       10.0292657230
 Si         1.7518556182        5.5744413641        9.0535722942
  O         2.8992336595        6.5589647447        9.6190815988
  O         4.3833336594        0.9263597205       13.4464650186
  O         3.2751417543        1.1728287481       11.1631942265
 Si         5.4686520048        2.0936615449       13.4320402939
  O         1.0902038375        2.5094751432       10.7829638234
  O         0.9300248218        4.9851710714       10.3175207408
  O         6.9519569160        1.5837267099       13.0386267529
  O         0.6901405844        6.4119855023        8.2160824473
  O         5.3136002764        7.0296179046        8.6934214247
  O         7.0086221135        4.6900698769       11.5623781029
  O         2.3434307796        4.5275278887        7.9660303039
  O         1.5692988245        0.3685954991        9.3707215017
 Si         7.0071747953        2.3213863345        8.8843921594
  O         6.2550164370        1.5751039719        7.6571393399
 Si         3.5764965700        0.1127087836       12.3201023007
  O         0.5491069053        3.9868378141       14.7736802532
  O         7.0389830156        4.7594591085       14.2189983932
  O         5.6274723213        2.6594024543       14.9218265481
 Si         0.0462976820        3.7529064427       10.8992446477
  O         7.9599049243        3.5134132777        8.3737756282
  O         7.9661948796        1.2660593328        9.6025717149
  O        14.4666899748        4.0576584995       12.4083858883
  O         9.2263563650        1.4019304016       14.4387625347
 Si         7.9419023776        4.6947679907       12.8650605493
  O        13.7534681786        5.8729651082       14.3807512612
  O        12.7410699581        5.4728608417        8.6642270246
 Si         8.5560491313        1.7867304965       13.0417629545
 Si        14.1685860810        4.3430169390       13.9961704777
  O        13.7819472739        3.4493362779        9.9107314716
  O         8.8380362923        3.3567081080       12.8204830572
 Si        13.0473162547        3.9109335889        8.5451930211
  O         8.9018801597        5.9369244720       12.7388299720
  O         9.1276327375        0.8468755786       11.8792429628
 Si        12.3814281340        6.9524521183        8.1695280188
  O        11.6398088273        3.1427558870        8.2546305751
  O        11.2638949972        6.3979072004       13.7530907468
 Si        12.5449403599        6.9369775336       14.5689857307
 Si         9.9702900677        7.0579321958       13.0697477264
  O        12.8897236854        3.5137776944       14.6056684555
 Si         8.2480922897        0.1551457735       10.7092895208
 Si         9.4665630918        7.2095051717        7.5926102805
  O        13.3532997317        0.0745782901       14.9310379013
  O         4.9240081524        7.5826311564       11.2478224789
 Si         3.4433340061       11.8035737681        7.7629682783
  O         4.4612930719       13.9014331143       11.7332581752
  O         2.7396170506        9.6742688694       14.0767016152
  O         2.2713846087       14.4538060121       12.9646416202
 Si         1.6678653399       10.2882769482       13.0087265214
  O         1.5633484576       11.8908124067       13.2048862424
 Si         2.9694406004       10.2812563237       10.2449556313
  O         6.7302982488        9.5334031966       10.7900356340
  O         4.3041187414       10.0828304960       11.0985788275
  O         5.7823326803        9.3726696188       13.1953440005
 Si         1.1885881505       13.3285819797       12.5701312248
 Si         5.4304671230        9.0805442971       11.6395386871
 Si         5.9819124190       13.5132173347       12.0943519116
  O         1.8717598628       10.1571356529       11.4067798467
  O         6.2478551394       13.7590758939       13.6566939960
  O         2.7248180843        9.1386583501        9.1350247452
  O         3.1188370739       11.6426479157        9.3618489600
  O         6.2558310301       11.9743442459       11.7240250427
  O         1.0211369928       13.2846335511       10.9480913526
 Si         0.5545392577       14.1733540958        9.6682535851
  O         6.9396219561       11.6541961321        9.2197835375
  O         0.4539291086       13.3625932453        8.2838600703
 Si         7.1307072927       11.0952216169       10.6939474124
 Si         6.4534374017       12.4466544849        7.9384674386
 Si         6.0549964707        9.9804382703       14.6876501556
  O         0.3296073316        9.4425089824       13.2856442228
  O         6.3313043973       14.0481629559        8.1213841650
  O         6.8915276685       14.5203304749       11.2497394671
  O         5.0181882046       11.8803415890        7.5018121737
  O         5.9435500978       11.5720673695       14.9239842541
 Si         2.5655068846        9.0601124156        7.5183361295
  O        10.1662919104       13.8356774285        7.6413527659
  O        12.8051596169       15.0889346867       12.2652366419
  O        10.3905037215        7.7322981740       11.6810178178
 Si        12.8390657479       14.3856797601       10.7930574443
  O        14.8614380690       13.8283326336       13.2781694047
  O        10.8591944098       11.6425484674       12.0461005161
  O        13.1311445337       10.4809050611       12.2739277685
  O        11.5619522007       14.6110793713        9.8425636023
 Si        10.4026187518       13.6740748227        9.2090725970
  O         9.2938540180        8.0555487461       14.1359650585
  O        13.0428275075        8.2859983442       13.8390285625
  O        12.9937085678       12.7965664374       11.0792840350
  O        12.5002868229       12.8860030698       13.6036237313
  O        13.5851321494       10.7043093038       14.6882411880
  O         9.4492486470        7.6468492403        9.1539346934
 Si        13.7707425435        9.6617238054       13.5028423619
 Si        10.6100722769        8.1800516157       10.1588405129
  O         9.0573272916       13.9909509159       10.0088635386
  O        12.0332107535        7.7365588939        9.5365673965
 Si        10.1782204624       11.1819067193       10.6733465407
  O        10.6257442630        9.7611290911       10.1579624956
 Si        12.4032302889       11.9235078770       12.3043356199
  O        10.6383630741       12.1181231526        9.4561881677
  O        14.1416044468       14.8548541868        9.9998370436
 Si        13.3539075438       14.2616644019       13.5643853283
  O         8.6518050908       11.2466326413       11.0916223477
