216
14.874 14.874 14.874
  O         0.5814479064        2.5628390108        6.1061353873
 Si         1.7532215373        3.4037929361        5.3294410423
  O         1.8146313906        3.6367800807        3.7145079011
 Si         2.8498319461        4.0724807755        2.5240714456
  O         4.8413883139        1.2482604037        4.2962376518
 Si         3.6752944433        1.0721282603        5.3896462003
  O         2.8117757417        5.6092407591        1.9797837122
  O         4.3513703212        3.8886065555        3.0498191550
  O         3.0785329390        2.5450714849        5.7118508357
 Si         5.7231018634        4.2629024790        3.7851831936
 Si         6.4416137918        1.5045122123        4.1910595578
  O         2.4826124125        3.0589784973        1.3287990783
  O         6.3657808322        5.6139622915        3.1476605994
  O         5.3741284483        4.3845137850        5.3761234962
 Si         3.3633978646        6.7863342814        0.9917166225
  O         6.6881085457        2.9744593713        3.5474561993
  O         1.5619976608        4.9212048920        5.8631767876
 Si         5.6440836022        4.6044357541        6.9757974706
 Si         2.8090412799        1.8980040355        0.2790284326
  O         6.2724463749        6.1073848003        7.0319481332
  O         0.1667125044        6.7811650620        4.3774636572
  O         0.5894523508        7.0430033879        6.8843560460
  O         2.7186614338        0.4359551922        0.9845339724
 Si         0.3211949698        5.9623829453        5.7473813167
 Si         7.0261590646        7.1025574672        3.3191701762
  O         4.3949971899        0.3295637161        6.6191076106
  O         2.1495958072        7.1873991929        0.0116681252
  O         7.1835111219        1.5675008182        5.6206398376
  O         6.6200024372        3.3861551054        7.4401847536
  O         7.0119548317        0.2268114265        3.3896081893
  O         2.4800752229        0.0774268855        4.9601874912
  O         6.9285961329        7.4376413593        4.8775419937
  O        14.6281235230        6.2856839137        0.1597556015
 Si         7.7691368191        2.3692312089        6.8826023753
  O        11.3297947610        4.3847768800        6.1980942446
  O        13.7873699314        5.1967554408        5.8802397882
 Si        11.5508782893        4.7404260901        2.3286876424
  O        12.2218267606        4.7816982368        3.8071972191
 Si        12.2687969052        5.3325325805        5.3311453280
  O        10.5923767421        3.4855858403        1.9013979951
  O        10.6643129512        6.0419603092        2.3147784786
  O        10.9226798108        0.9751441995        2.1488652003
 Si        10.7845806216        2.1131117777        1.0473382563
  O        12.7259637602        4.8755611571        1.2454945618
  O        11.7359443281        6.8439130914        5.6137220889
  O         9.0570711581        3.2768746155        6.5279399278
 Si        10.4456697574        3.6167197479        7.2621166010
  O        12.1426803549        2.3158793417        0.2454505712
  O         8.5705576560        7.2682421480        2.9807107777
 Si         9.8145270187        7.3233465851        1.9795177285
  O         9.2567451702        7.1012461453        0.4894437934
 Si         0.6774905082        7.5400548731        0.5757041701
 Si         5.9714887047        7.4307263979        6.1571530565
  O         6.2811058434        8.7679637774        6.9494178967
  O         0.7476813261        7.7611514472        2.1524060708
  O         6.1191746034       12.3950296664        0.5717948985
  O         4.4023630654        7.5136826705        5.7197283487
  O         0.6764553913       13.7130417702        0.6693456870
  O         3.7909372250        8.1022405534        1.8139413621
  O         6.2742550734        8.1949827254        2.3900156111
 Si         0.8524651401        8.0711145112        3.7039141274
  O         2.3694379602        8.1011312825        4.2242400201
  O         1.7338557714       13.6397454040        2.9298663921
  O         3.2091978478        9.9177856540        5.9474683408
 Si         1.5867329696       13.6823779550        4.5090936586
  O         4.8665831002       10.5212297527        1.6703157206
 Si         4.9196539438        9.0844088926        2.3974246012
  O         4.6281290999        9.4147830939        3.9416219804
 Si         3.6262701744        8.7235761885        4.9795184541
  O         3.4708983937       12.8101648454        1.2409640579
  O         5.6139075831       12.8105598404        2.9763166550
 Si         4.9446844786       12.1526213961        1.6339766041
 Si         2.1667363188       13.8404442841        1.4003639269
  O         1.9811369021       12.2267361099        5.1301656166
 Si         2.8256846228       11.4344003086        6.2627693665
 Si         6.9793450880       12.8381593003        6.8282577386
  O         6.6953416697       13.3014894198        5.2974628691
 Si         6.9078141830       13.4973138620        3.7019951320
  O         4.1246764301       12.3884802547        6.3575513004
  O         0.0753827628       13.8880068025        5.0357844410
  O         7.1860251054       11.2391831668        6.8574117699
  O         0.1677816346        9.4992829716        4.0461158131
  O         0.2534006623        9.0071084338        0.0760505414
 Si        11.0168190045        9.7526832120        3.3781529935
  O        11.2288726379        8.9852048367        7.3449951954
  O         8.3361443796       12.8924856260        3.2317233488
  O        13.3024669414       14.6233520839        2.0628817377
 Si        14.0382815013       14.3660916314        0.6133154388
  O        10.6670866013        9.0792512552        4.8030239987
  O        11.8966342502       14.8675212209        4.3323451801
 Si        11.3403059240       14.0058444343        5.5900295982
  O        14.0520904255       11.4787765859        5.5335291804
  O        12.5526301929       10.3238082431        3.5473145759
  O        10.7376601617        8.6464338145        2.2233734869
  O        10.0123224994       10.9640314013        3.0710633546
 Si        13.7116068974       10.1378943397        4.6998986823
 Si        11.8142849334       14.6541841448        2.7276480932
  O        10.4098664679       14.8577156905        6.6007988750
  O        10.4139351485       12.8137136626        4.9581818499
 Si         9.8930800082       12.5189685381        3.4396698872
  O        13.1489690883        9.0139801141        5.7014371463
 Si        11.6689695727        8.4298751468        5.8966464340
  O        12.6566327008       13.4684799974        6.3689786031
  O        10.9231804487       13.3147241166        2.4759716597
  O         8.3446850032       13.4747780297        7.3544688982
 Si        14.1878463359       12.9801942032        6.1537452740
  O         1.2309770855        2.7218724772       11.3104639630
  O         4.7793188001        6.2785332632        9.9956120936
 Si         3.6277957109        5.4839284023        9.1812108583
  O         2.7227101775        4.5521499475       10.1647456476
 Si         2.0958678550        1.8083534742       12.3008458154
 Si         1.2930437509        3.7814181836       10.0901133502
 Si         4.8671599317        2.1870580170       13.0404052177
  O         2.5420847286        6.5238971461        8.5883689243
  O         1.3184397244        3.1387131574        8.6026263384
  O         3.6436309354        2.1431342644       11.9985752134
  O         5.7825909823        0.9048866323       12.8825218778
  O         5.7312317051        3.4858273118       12.7173500103
  O         6.7921952750        5.2933180853       14.2142337031
  O         1.8155578780        2.0665472000       13.8772906671
 Si         5.8939399967        6.6191358203       14.0241894866
  O         0.9896718096        0.6655500999        7.9287631694
 Si         7.1225808212        4.1809090701       13.1108348097
  O         4.3757350092        4.6330969565        8.0013195801
  O         5.4498088885        6.7732581441       12.4822617926
  O         7.2691526516        7.0367041624       10.5796222397
  O         4.2926069966        2.1465608138       14.5501748050
 Si         1.1493220887        7.3070514281        8.3588944828
 Si         0.4430349698        2.1510755914        7.6730125716
 Si         5.6795397163        7.2190114124       10.9467464529
  O         1.8166112206        0.2495133353       12.0660827178
  O         4.6236684705        6.3717849441       14.9615840526
  O        14.7856187436        6.9473323895        9.3307085056
  O        14.7843511718        4.6202956838       10.2413325822
  O         7.7699421298        4.8725156306       11.8198530935
 Si        13.3981787020        2.2335439605       14.1500172336
  O        10.1669799570        4.4687851127        8.5971569616
  O         8.1764151566        3.1474042272       13.7086376295
  O        12.3938805792        6.1073177263       13.7852081898
  O         8.3593975719        0.9053968574       12.3966891841
 Si        12.3953070588        1.8647403324        8.7741834394
  O         9.8416349762        5.9541881230       10.7285059757
  O        10.4291291947        2.4033936919       12.3912572772
 Si         9.1849312303        1.9641492300       13.3224084467
  O        12.9721246453        1.8253316121       12.6429449361
 Si        11.7036902439        1.7329996230       11.6540312126
  O        12.0693519346        2.4732425598       10.2524511092
 Si        10.6715158973        5.7912000029        9.3453946559
  O        12.3119355562        5.7097515010        9.5006008984
 Si         8.4378382229        6.2881039269       11.4430576632
 Si        13.8260346747        5.9196134173       10.1185479278
  O        12.4000953881        0.2567873660        8.9261423899
  O        13.5500467063        6.5297138055       11.5686558726
  O        13.8013986973        2.3151888339        8.1761310298
  O        11.3347943621        0.1851615480       11.3031120372
  O        13.9592981984        3.7927438245       14.1315696595
  O        11.2351291754        2.3104376455        7.7658176317
  O         8.7564712290        7.1946508822       12.7474381607
  O         8.3476536071        1.2114144856        7.8651378452
  O        10.1611743908        7.0167832288        8.4300436678
 Si        13.4324344329        5.2404247542       14.7324614044
  O        14.2143084585        0.9249048213       14.7131997959
 Si        12.6123399445        7.2581475634       12.6439169645
  O         9.7393212299        1.5741634304       14.7980348139
 Si         7.0366731575       14.8684498945       12.5268160006
  O         6.8731220343        7.8640527578       14.3896847008
  O         1.4865855149        8.8508886304        8.5096124403
 Si         1.3372459923       14.0265289975        8.3407505519
  O         3.8559390359        9.9831754586        9.0085440423
  O         6.5106152827       13.8874379457       11.3162158918
  O         6.5485051609       10.0896684480        9.0966207093
  O         3.8215915023       13.6340660541       11.3119412519
  O         5.2148243048        8.7657808580       10.8357852096
 Si         2.1978443624       13.7616433469       11.3218018313
 Si         5.2372605647       12.8487685705       11.5126174181
  O         5.5483571379       12.2308875229       12.9826908308
  O         5.1319479105       11.5553164494       10.5807646358
  O         1.3365185272       13.7914638752        9.9351068013
 Si         5.1803271958       10.0950957775        9.9130884826
 Si         2.2611760429       10.1878283543        8.8890999516
  O         1.6606473245       10.6647427288       10.3049459881
  O         1.6378726930       12.4845788079       12.1383593413
 Si         6.7907148743       12.4711365311       14.0115281787
 Si         0.7597577789       11.2990376910       11.4734342281
  O         2.9275959682       13.7916563277        8.0858668245
  O         0.4047564753       10.2505171461       12.6404303046
  O         7.3530908855       13.9591632430       13.8033432933
 Si         7.2109151950        9.8507260000        7.6661965449
  O         0.2347079172       13.1384484899        7.5103534348
  O         2.0612091319       11.2525148071        7.6858595829
  O         5.7913652559       13.3933049287        7.8311554524
 Si         4.3076731272       13.7237853562        7.2587089320
 Si        12.3058114099       12.0707421130       14.0574669056
  O        13.3062468022       10.8329911263       14.3658463529
  O        12.3177028795       12.4656526784       12.4971545584
  O         8.6825155746        9.2461379063        7.8390690062
  O        11.8997943176       12.7990207007        9.9977311429
  O        10.7586697655       11.5741148085       14.3712234471
 Si        10.0515293891        8.6211884846        8.3799486260
  O        14.2786647617       11.8944859649       10.8251944697
 Si        14.2861386489        9.6934881807       13.7839342576
 Si         8.4980992135        7.8868415920       14.1911344800
  O        10.2442004751        9.1684121460        9.8694791040
  O        11.3236190456        8.0110895311       11.9793944096
 Si         9.2504978511       14.7337540693        7.7393904798
  O        12.9558149045       13.3643612184       14.7883325248
  O        13.3911495943        8.5104532192       13.2232733242
  O         8.1020059135       11.5568530979       13.7861223958
  O         9.1645822256        9.3414597889       14.3725063455
 Si        10.9271148929        9.4341943152       11.2877296309
  O         9.9181085953       10.3410262296       12.1694352835
 Si         9.5029777306       10.7598289967       13.6894969132
 Si        11.3695495731       14.3073140303        9.8632014012
 Si        12.6884071852       11.8742152130       11.0531810105
  O         9.9184875670       14.3830272219        9.1702378603
  O        12.2390315979       10.3266453090       10.9923053629
