216
15.064 15.064 15.064
 Si         2.9828801679        5.0708667920        2.3960641431
  O         5.1092060109        2.6640790149        1.9582712163
  O         3.9251083970        5.1086095895        1.0986170602
  O         2.8879247416        3.5079033917        2.8367608975
  O         2.8989374760        6.1161168486        5.9722691581
 Si         3.6211784208        2.1773580380        2.2473144909
  O         2.9066033956        1.7258222267        0.8621598812
  O         1.5602214783        5.6601445098        1.9700728726
  O         3.7614163790        0.9391567367        3.2878617060
  O         3.5246335284        6.1051173846        3.5080032975
  O         6.2582172604        6.1910096543        1.4243709836
 Si         6.4514890806        2.6363898774        1.1107401675
  O         0.7237698012        4.6961798505        6.5148453124
 Si         4.0717219507        0.6025691667        7.0452097614
  O         7.0695596014        1.1665607035        1.1653631647
 Si         2.9800795370        7.0602986845        4.6783243331
  O         2.4810072974        0.8559727426        6.8419679328
 Si         0.3802157668        5.1931230570        1.0008899207
 Si         0.8911471573        0.8802361466        7.1235479024
  O         0.2302757413        2.3062193243        6.9037276454
  O         7.3795517235        3.7622214546        1.7997750085
  O         4.8642732665        0.6464554603        5.6359463162
 Si         1.8514257401        5.6642145230        7.0942442945
 Si         4.9859312839        6.1141297637        0.4526621154
  O         0.9764085440        0.0704953588        0.7866955054
 Si         2.3597130877        0.4505687973        0.0298416297
 Si         7.4540346776        0.0515595093        2.2571312500
 Si         4.8393705317        0.0478307145        4.1318947431
  O         0.1567331857        0.0011017897        5.9717447025
 Si         7.6048433886        5.3318114223        1.5372307724
 Si        14.6278993866        3.6201328161        6.2895491594
  O        14.5311080090        4.2421792826        1.9534445194
  O        14.3485416387        3.5951233458        4.6894712698
  O         8.3992088350        5.9690657469        2.7598732388
 Si        13.6492079728        4.1290066417        3.3166980979
  O        13.1702357941        5.6517746216        3.6798227181
  O        11.3768446382        0.7050032548        2.0430112414
 Si        12.1005543531        6.6342435039        4.3964030863
 Si        12.3201729891        1.9768614418        1.6465171969
  O        12.5564249740        2.9870878260        2.9012999773
  O        12.2468222473        6.5039553996        6.0011602244
  O        11.3774513545        2.1983087396        6.4289864609
  O        10.6552757046        6.0389569844        3.9932136261
  O        13.7319648902        1.4156686368        1.0814053419
 Si        11.1220274829        0.6888810132        6.0001727978
  O        10.6873123769        0.8725601415        4.5000252097
 Si         9.7367584393        6.7983133331        2.9143521982
  O        10.5119551170        6.8985772481        1.4802932623
  O        13.2536899968        3.8463090887        7.1416287854
  O         8.8503103032        0.4737635176        2.8959288203
  O        11.6167665394        2.8188257742        0.4665268874
  O        14.5923241123        6.4380973444        0.4654655909
 Si        10.3759420393        0.1025045734        3.1676030307
 Si        11.2294614341        6.2173588062        7.2472700366
  O        10.7585370324        4.6660623744        7.1573163434
 Si        14.4643919690        0.1433280663        0.4050660876
  O         8.3891410273        5.4941435191        0.1512867459
 Si        11.7141515428        3.3735772995        7.4369724702
  O        10.1092309262        7.4108801541        7.2929139933
  O         6.2780633450       15.0691275777        3.3723869719
  O         1.5022242124        7.7026783006        4.4049246087
  O         5.1813869169        9.9718951335        0.8590224694
  O         1.8074268140       10.9124191281        1.1829567075
  O         4.6278426068        9.9568991916        6.9130448524
  O         2.5888199747       12.1602975785        3.2146806190
  O         4.3889068163       13.5782917619        4.3142421977
 Si         3.7684882076        9.7525463855        5.5847123662
  O         4.0072909808        8.2859222265        4.9359584751
  O         5.2482339649       12.0008128167        2.4590828246
 Si         0.9576057574        9.1680267455        4.8674312980
  O         4.3161515785       10.9081740653        4.6206073407
 Si         4.1428172402       12.1517583975        3.6285915035
  O         2.1425382588        9.8115388413        5.8060105920
  O         0.8662842942       10.1047811138        3.5498512212
 Si         1.3191057974       11.3604877438        2.6412132254
 Si         5.8209834243       11.4334223452        1.0672483102
  O         7.4349407869       11.3105623452        0.9341487873
  O         4.3871077945        7.5678568804        0.2357797281
  O         0.0589277619       12.3310717469        2.5882101447
  O         9.8895890491       15.0622501075        6.8115002434
  O        14.1195893622       12.8456274772        5.9437952590
  O         7.7638432167       13.7309163567        1.4944798889
  O        12.5509562596       14.9737756250        6.0450814146
  O        12.0886766837        8.2209688041        3.9153318748
  O        12.5527518386        7.9358569071        0.0745410608
 Si        10.9360974269        9.2153856538        3.2530406860
  O        12.4857251442       12.2337303344        2.5053766628
 Si        11.0588849423        8.1389786417        0.5808457497
 Si        13.5352602477        9.2838649168        6.8664623727
  O        11.9315120070        9.0263466338        6.7550809825
 Si        10.9219956101       12.1246427695        2.8534793360
 Si        14.3139487455       12.1396717497        7.3529592912
  O        13.7419984758       14.2193010472        3.7842823447
  O         9.8756910149       11.9951160900        1.6408235899
 Si        13.7807129876       13.1887975743        2.5111721374
  O        13.4820939519       10.8184562695        7.2240028262
  O        14.5875334521        9.0302010421        5.6384338099
  O        10.5259024439       13.5740197014        3.4664099741
 Si         8.5614659410       12.4807457393        0.8518851956
  O        10.8251021053       10.7530620722        3.7642726658
  O        13.7380133696       13.9519435731        1.0916295536
  O         9.5724381595        8.3320187483        3.4474848305
 Si        13.8938731069       14.3378412157        5.4003579438
  O        11.1424887538        9.3545091167        1.6448746039
 Si         4.0817799280        5.3256411021        9.2400789611
  O         3.9241507499        2.5119840636       10.4452659262
 Si         3.6511119376        3.6914567951       11.5611322190
  O         4.6936769800        6.8270806684        9.1782185481
 Si         5.1353728873        2.5589994262        9.3199991320
  O         2.3114024685        3.6804611625       12.4786051381
  O         3.5979494502        5.0947686223       10.7642414460
  O         5.0197712531        3.6057556107       12.4045313160
  O         6.5893654604        1.9675518318        9.8125247758
 Si         0.9100038378        3.8950510619       13.2778076438
 Si         6.0386830367        4.1366166234       13.5028906458
  O         5.1841608269        4.1551565109        8.9384327782
  O         5.4206934622        5.4947795832       14.1074943242
  O         6.1945502218        2.9989732810       14.6344953629
  O         1.9622337340        0.6260269807       13.5128685290
  O         2.7625269072        5.1093726680        8.3095490864
  O         0.6284547239        0.4708302576        8.6990821007
  O         4.6998888109        1.7244569497        8.0141547926
  O         1.0885496232        4.5499298211       14.7464104199
 Si         0.4674988454        1.0329213047       12.9760512933
  O         0.2337333053        2.4856891012       13.5909513350
  O         0.3936976220        1.1908042738       11.3618268616
  O         7.5185937138        4.4720469270       12.9431050640
  O         0.9449614977        6.9123014823        7.5192185511
 Si         7.5949735401        0.8151203407       10.4005303458
  O        14.8301868362        4.6293812219       12.3969964097
 Si        14.7450811653        0.5892126035       10.0170835893
  O        13.0240476810        6.1142865777       13.4159858964
 Si         8.8208319180        4.9890236564       13.7539149775
  O        12.6335936060        5.0948993284       11.0037424776
 Si        11.1794889542        2.9255935800       13.9899101393
 Si        12.8107293326        6.3665987661       10.0317801983
 Si        13.2103829115        4.8039183385       12.4886944853
  O        12.4016560197        3.5405188657       13.1060230695
  O        10.6032222002        1.4995565170       13.4998076534
  O         9.5769922187        6.1878217883       13.0168949183
 Si        10.1908074587        0.7861929756       12.1216543386
  O        11.3813990872        2.6694991961        8.8713058405
  O         8.8087988423        1.2644839931       11.3882849101
 Si        11.7586110347        1.2573150292        9.5953205705
  O         9.8898644351        3.8431785910       13.8897614397
  O        11.3791988317        1.2551644320       11.1433119876
  O        13.3751561519        1.2573768571        9.4891417643
  O        12.0046830526        6.2754608135        8.6556230935
  O        14.3709614060        6.4377477390        9.6471309867
 Si        13.7397265662        7.1837784274       14.3890237123
  O        14.4387965342        0.1489298793       13.8220350715
  O         8.3209954345        0.0030858845        9.1594816676
 Si         0.1246226079        7.4903008293        8.7489207462
  O         6.6743443480       14.9789851004       11.3775470061
  O         3.0559236125        9.5748467925       14.4263786127
 Si         2.1344679494       10.8634005514       14.6815330371
  O         5.9642642099        7.8451849343       11.2786072065
  O         1.2671000962        8.0905627040        9.6611235806
 Si         4.9141706339        8.1608070528       10.0885516689
  O         3.5276668988        8.6268848907       10.8213901447
 Si         2.0284226144        9.1656227366       10.5413953548
  O         5.4187353535        9.1773131139       13.4354791185
 Si         4.1305605990       13.1998183379       14.2251887379
  O         4.7888367875       13.7244238658       12.8502117273
 Si         5.6686675103       13.7317617973       11.4920974186
  O         4.6345808703       13.8904254063       10.2803571317
  O         2.2678406895       10.4943978633        9.6496800897
 Si         4.0868792155       13.2238616063        8.9386022195
 Si         6.6027605808        8.7552674508       12.4456424396
 Si         1.4651202539       11.8030455740        9.2149067134
  O         5.5692753474        9.3417756161        9.1884359751
  O         1.0285131729        9.4298439712       11.7754137251
  O         6.5715832280       12.4111046078       11.2957330441
  O         2.5061533132       13.0173307333        9.1801548075
  O         0.7201414635       10.6749438042       13.9785709431
  O         2.8988655219       12.1555320906       14.0540939603
  O         4.8613215556       11.8439980842        8.7025979950
 Si         5.5622381146       10.5321672542        8.0874241180
 Si         4.5338741748        9.0619890567       14.7628294110
  O         7.2993075806       10.0507937520       11.8430292768
  O         0.7776834023       11.7781282674        7.7484002699
  O         0.2430703284       11.9286194304       10.2757157581
  O         7.0602710975       10.9893627553        7.6061898961
  O         4.3109170485       14.2046124702        7.6896106277
  O         3.5408167131       14.4149061991       15.1263238877
  O         5.3349251121       12.4651887499       14.9895649090
 Si         7.8317387181       11.4123699628       11.2220241247
 Si        13.9677943965       12.8245410066       10.1441091003
 Si         9.9635518122       12.8026104169       13.0790382848
  O         9.1014365686       12.8643821761       14.4428368396
  O        10.1202640625        8.3994511372       14.3511844126
  O        10.8214616465        9.0149521748        9.2403492116
  O        12.3188856063        7.6804290282       10.8390717696
 Si         9.3449772745        7.7692678335       13.0709461763
 Si        12.3536397018       11.2495159540       12.1796807385
  O        10.1918175665       14.2774650298       12.4697285519
  O         9.5541143316       10.2128927816        7.4496963905
 Si        15.0332771968        9.6873738895       12.9727515073
  O        11.3847884636       12.0097939004       13.2461627530
 Si         9.5744880549       14.4537738494        8.2852456316
  O        11.5207210257       10.1209636159       11.4513799267
 Si        10.5723152436        8.9543652938        7.6584264555
  O         9.1854493704       12.8642528668        8.0118403260
 Si         8.5708032284       11.3269897719        8.1640676352
  O        14.1194749777        8.5394192012        8.1682461233
  O        10.9719648547       14.9836800947        9.0229917526
  O        14.2995824284       14.2717144569       10.6748978472
  O        13.6691648410       10.5081376704       12.7113222665
  O         9.8134076820        8.3065763597       11.6254935474
  O         7.7618421277        7.9988098914       13.2606128126
  O         8.3959353659       11.1292463256        9.7475132724
  O        13.6443091649       12.9631731971        8.5660386487
  O        12.7778943455       12.3076778008       11.0493598537
  O         9.0899922928       11.9964669702       12.0104855588
  O        14.6630768805        8.2347885647       13.5798480826
 Si        11.1129265152        8.7515502300       10.7808462608
