216
15.019 15.019 15.019
  O         5.6306731340        6.2597827186        3.9900793009
  O         2.5911036518        5.4027463241        6.1110202411
 Si         1.4221295722        6.3536051121        5.5377863903
  O         3.3662056224        1.4095924439        1.0939324208
  O         3.7417785961        1.2554167167        3.8697489777
  O         2.9823730083        1.5539050737        6.4071044277
  O         0.9980585923        1.2501022768        1.8078206198
 Si         4.3581666780        1.2167994530        2.3607863147
  O         6.4886814319        4.0698579492        5.2460145775
  O         5.4086267895        2.4215915287        2.2646084509
 Si         1.8821447893        1.7187538345        0.5562826912
 Si         3.8909221479        0.7191091008        5.3912075588
 Si         6.7987274928        3.1114050013        1.8530843913
  O         5.3953508530        0.8509459319        5.9462636503
 Si         6.3742127231        3.8489738430        6.8373365709
 Si         6.8248213723        5.1728109182        4.1376215409
  O         7.0516241221        4.4071810902        2.7548605950
  O         0.5444003336        1.4057887270        7.0364278503
  O         5.7133283711        6.7370766890        1.4506952189
 Si         0.5193112766        4.3910464717        0.6363769267
  O         6.7967155826        3.5935617332        0.3251363110
  O         2.0333700557        6.8652909537        4.1554527390
  O         1.6519137947        3.2938609168        0.3147660205
  O         1.0987745323        5.8720017580        0.6252097809
  O         6.9608453010        2.3714773258        7.1972207857
  O         0.3946430761        0.9418620085        4.4302366470
  O         4.7927585965        4.0600138043        7.1898048756
 Si         3.3198024770        4.7280030512        7.3936716604
 Si         6.4299951975        0.8383833593        7.1891048381
 Si         5.4868628937        7.4264344824        2.8874816856
 Si         5.0669341533        6.8551537548       -0.0104862850
  O         1.1776315614        7.6020262716        6.4950399177
 Si        14.9055605256        0.9027098517        2.8892123353
  O        14.9394327722        5.7873148953        5.3860437688
 Si        14.8391813427        0.5174212270        5.8891882757
  O        14.9724787669        4.1388644214        2.1132443687
  O         9.1602544147        0.6254619605        0.3094820064
  O         8.1288119125        6.0151962162        4.5309650768
  O         7.9648573844        2.0423572745        2.1175932715
  O        13.6851746767        1.9438549778        2.7402355545
  O        11.8899450346        2.9709537540        6.3371748862
  O         8.9996661087        6.8982038090        6.8006465938
 Si        11.2398748066        3.5124762622        0.9577290089
 Si         9.3108243991        1.2630054266        1.7735271750
  O        10.5589094162        2.2644538451        1.6457234689
 Si        11.8398918154        1.3787143612        6.4127954315
  O        13.5236471237        4.0719700442        4.2476662240
  O        12.2828323386        5.5435417673        5.9493231394
 Si        13.6360443858        3.5416115496        2.7615633958
 Si        13.4411637173        5.5675315512        4.8330300838
  O        12.3670552920        4.0679424040        1.9553747043
  O        13.2713659265        0.7870845854        6.0166812320
  O        10.7955048940        0.8516004997        5.3007699399
  O        12.9152796890        6.6493447161        3.7478795959
 Si        11.5230076679        4.4346810080        6.8343746465
  O        10.2446826907        4.7682014480        0.7812619979
  O        10.3988427875        7.1111671612        4.3847539686
 Si         8.9871159194        7.2066641014        5.1890550570
  O         9.9158357439        4.5366380044        6.8777150509
  O        11.2585625837        7.0292949886        1.7010847799
 Si        10.8985784107        6.1926284953        0.3336144161
  O         9.6141585805        0.2316900559        2.9751672971
 Si        11.5618094053        7.4224779674        3.2791328447
  O         5.0125606654       14.7792714065        2.1927586180
 Si         3.3611152237       11.5579085503        0.4509964661
  O         1.7187880488       10.0873541855        7.0335127216
  O         4.0577775246        8.1421388740        3.0472321052
 Si         7.0912478547       12.9657875121        6.8778651343
 Si         2.5094980941        8.2429341202        3.5085349432
  O         6.6621377259        8.5202329048        2.9808393390
  O         2.3414032025        9.4744434036        4.5317534601
  O         1.5019641527        8.3758324414        2.2679700316
  O         5.0870860755       12.7559426508        3.9331001928
 Si         5.1955097888       13.2031606371        2.3954470632
  O         4.0724561213       12.3522129972        1.6364355886
  O         3.5145923659       14.1659405671        5.4723858478
 Si         4.3756292102       12.8007548270        5.3733262206
  O         3.3801196094       11.5774562432        5.6305866222
 Si         2.0586984524       10.6760239686        5.5654096761
  O         5.5433843688       12.7559828805        6.4848781215
  O         6.6416846440       12.8502390698        1.7940182344
 Si         1.3979167519        9.1724054238        0.8955543361
  O         0.7959299275       11.5753409616        5.1519634540
  O         2.5110798467       10.3171440324        1.0133746473
  O         6.4052631542       10.3195243052        0.9383119185
  O         7.4173665100       14.5806999977        6.8901513757
 Si         7.3953526950       11.4669997248        1.4868188272
  O         7.7487953227       10.8774563286        2.9802581110
  O         8.4581519084       11.8216712925        0.3000101549
  O        10.0208732806       13.4512432114        4.9319715733
  O        14.9587906443       13.9205377244        6.0150429012
  O        14.9271838312        9.7143027816        0.7035627093
  O        14.3963946041       14.4641424738        2.5067499093
  O        12.5984466972       10.5654927706        0.0028859778
 Si        10.5881235655       14.7378409249        4.1627891688
 Si         9.6685379080       12.0818309558        5.6948955712
  O        10.1735108157       12.0526505083        7.2680930935
 Si         7.9662331484        9.3136994005        3.4406251796
 Si        14.5120489144       12.4626648373        5.4465884300
  O        10.2376045196       10.8827612583        4.7033586201
  O        10.9540440630       11.1741241715        2.1142393697
  O         8.0508936993       12.1313618159        5.8713405377
 Si        13.1928191219       13.4813465431        2.8745130407
  O         9.4230763430        9.1522179212        2.7388079805
  O        13.6869094621       12.5150296861        4.0628333463
  O         8.2899295110        8.6764280204        4.9283666187
  O        12.8427722611       12.7431465059        1.4950453885
  O        11.8239769420        9.0322659818        3.4332146934
  O        11.9621716406       14.3282510708        3.4431987457
 Si        11.8056857548       11.7048594511        0.8399740467
  O        13.5220818497       11.7353873808        6.5017907873
 Si        10.6328899848       10.1187851921        3.2877564798
 Si         1.2592506285        6.0422061734       11.7496563259
 Si         6.7106358148        1.9180943044       12.2556947033
  O         1.9694416942        6.0301956743       13.1816608935
  O         5.7324112602        1.0161407494       11.3511463718
 Si         6.6231846289        4.4050398285       13.9750279724
  O         6.1054052673        3.2867091094       12.9003115219
  O         2.1832255217        1.5563585298        9.0651356228
  O         2.4097767378        6.5030933095       10.7059063856
  O         0.6920999160        4.5246895778       11.5649702854
  O         3.5911673837        5.8567340533        8.5224869393
  O         1.4872741273        1.0152025660       14.1662311226
  O         1.7191641957        0.6274562228       11.4970927138
  O         5.8541347033        0.6212260058        8.6839525742
 Si         2.3066752850        0.2887497392       10.0234886417
 Si         3.2549262471        7.1189421331        9.4658927420
 Si         0.8665091110        0.3223757206       12.8494849164
  O         5.6355272634        5.6782814745       14.0718695849
 Si         2.0531360031        6.6618717859       14.6355351078
  O         0.0201223768        7.1107061361       11.8112933239
  O         2.1982970108        3.6074072693        7.7435740932
  O         7.3450887005        1.0106917154       13.4483741328
  O         7.3465151393        4.9236983697        7.5729097964
 Si         5.3897606198        0.0298469054       10.1123437040
 Si         1.9577192341        2.0250381244        7.5494118084
  O         3.5263553854        6.5112554084       15.1943804617
  O        11.9651518506        3.2124126745       14.5503931402
  O         8.0466769730        5.0752707866       13.6036693715
  O        14.3852138768        4.2963062175       14.5508672207
  O        14.3441519919        0.7624006322       12.5084572460
  O         7.8916057005        2.3517666622       11.2573576544
 Si        12.9166243295        4.3778872082       13.9099515118
  O        14.2388942948        2.3508009069       10.5664212494
 Si         9.4864435262        2.2390463263       11.3511446396
 Si        13.8674470928        0.7497338686       10.9357359861
  O        10.0173565850        3.7576214040       11.1873093509
 Si        14.2584649723        3.9146262372       11.1161420645
  O        13.1657137142        4.0798100164       12.3353385918
  O         9.3836717180        6.2562351457       11.7723203954
  O         9.2366955358        5.5531174057        9.2293905408
  O        10.0072468591        1.4070293788       10.0843618036
  O        13.9172383397        4.9949543733        9.9455983738
 Si         9.9933097236        5.2948403695       10.6541568451
  O        11.5105044938        5.8008627781       10.5537317732
 Si        12.6080566253        5.7458848925        9.3937523168
 Si         8.7339059169        6.4867287104       13.2123394548
  O         9.7781072562        1.4058795810       12.7491125904
 Si         8.8487477194        0.4851280995       13.7597843549
 Si        11.0778471518        0.4296632775        9.3987474007
  O         9.7870186670        6.8918365718       14.3908254181
  O        12.1954504639        5.7847195728       14.3957682710
  O        12.3562757852        0.5391332384       10.4079134316
  O        12.0444949733        4.7089966198        8.3124634773
  O        11.4893655078        0.9284487296        7.9197433691
  O        12.8398074848        7.2599256499        8.8379367562
 Si         8.8599079082        5.4960332287        7.6507374436
  O         3.8210771325       14.9323485362       10.1751215441
  O         2.4202335080        8.2147813348        8.6798093791
  O         4.5360727930        8.0663039193        9.7868420240
  O         1.1796211166       11.9719959637       10.6364007774
 Si         1.2212369798       12.3579782325       13.7201741956
  O         5.8923207645        9.0678899677       11.5064463869
 Si         4.8251022295        9.5573341717       10.4113921081
  O         3.4182729728       10.2455553737       10.8714085846
  O         5.5556707107       10.8014202078        9.6219392020
 Si         1.9629417136       10.7529501089       11.3621100041
  O         2.1123126724       11.3419232310       12.8422250270
  O         5.8632013475       13.5207915051       10.2420465906
  O         1.0123325401        9.4612499406       11.4166452669
 Si         6.5141444630       12.1219309584        9.7763661171
  O         1.6433229287       14.0631223137        9.2247965176
  O         6.8835425772       10.1612154543       13.4698733343
  O         0.8676456354       13.7568395364       13.0584603009
  O         7.2737393470       12.3612899044        8.3675804389
 Si         0.4477444098       13.1318356202        9.7646620585
 Si         5.7138195838        9.9364264997       14.5597944476
 Si         7.2809405553        9.0939162718       12.3120605455
  O         4.4539058398       10.9543527749       14.4149273102
  O         5.2406817811        8.3809834012       14.4793906525
  O         2.2533622829       12.6042856283       14.9341887392
 Si         1.3122490807        8.6642335606        7.6583729184
  O         1.6509633815        8.2194862660       14.6302972611
  O        10.3322301368       14.0061985586        9.2318745665
 Si         9.3994366716       12.4377081255       14.1150143485
  O        10.8640118330       12.4541872147       14.7958368632
  O         7.6639872518        7.6779236668       12.9914951925
 Si        14.0867890522       10.2808508355       14.4698995276
 Si        13.5275967937        8.7048672268        9.1086940500
  O         9.5299375444       11.5781550606       12.7383760989
  O         9.9465007963       11.5018321980        9.9959136780
  O        12.9112273718       10.0048966052        8.3741236190
 Si        10.5801417218       12.4507259416        8.8159654895
  O        15.0108271154        8.6832691640        8.5304246678
 Si        14.6776847951        8.6947508878       11.8296340320
  O         8.5362317151        9.6108402079       11.4228740195
  O        12.1871768469       12.3681778145        8.8278488081
 Si         8.9759055484       11.1735847829       11.2674207455
  O        14.5336285701       14.3324687598       10.4027903071
  O        14.6980707538       12.2079054962        8.6921433819
  O         7.5835170880       11.9002631529       10.9508999921
  O        13.5479530383        8.9747271137       10.7049177438
  O        14.0819322400        9.2339512435       13.2318975960
  O        14.8134629994       11.6551393184       14.0116793686
 Si        13.3481335009       11.5480382638        8.0945842434
  O         8.9924581634       13.9078177006       13.5415013930
