216
15.012 15.012 15.012
Si      2.022894274999993     13.032658821200000      1.068976887000000
O       4.421687699200011      0.554925283100014      1.075052366100004
O       2.549540646200006     14.080165756900005      2.183372330000015
Si      3.024708432099998      0.579779692200000      1.883155362499997
O       1.283731840800004     13.930052907999997     14.927781787200006
Si     14.548814502799997     11.508935950700000      1.499161267200003
O       1.054818768400013     11.966646860500003      1.792055223999995
O       3.257262898699996     12.291212277900007      0.382449802400009
Si      0.734278775700001      0.423939180800003      0.139621278000002
O       1.933053505899995      1.249295228199996      0.864323789099992
Si      3.772497140100001     10.809963994400006      0.033941472800000
O      14.587020054800005      0.320149556200005      1.248200603100003
O       4.504733501200001     10.244472222200008      1.403439148199999
O      14.338980585799995     11.645493525200004     14.932741233700005
O       4.505458396000006     11.692685983799995      3.664307895600000
O      14.037180703000001      0.712066890000004      3.900959175000002
Si     13.603417191700009      0.911641065099998      2.360158824699994
O       3.155528378600001      1.350070552799997      3.282725558500005
O      14.267842969500006      9.959622835800005      1.867041947100011
Si      5.225620799099997     12.862081674000008      4.532881902000005
O       4.109149983100000     13.372668059700006      5.616365834700007
Si      5.156701458200011     10.406057917400000      2.908660685600001
O       0.200413350800011      1.195545546000012     13.819192627100010
O      13.563101362699999     12.521251945500003      2.252450521700010
Si      5.033545608600011      1.410137241000000     14.861815531699998
O       2.461798174400005      9.909439057200007     14.766843912500006
O      14.189434763700003     12.272667215800009      5.633620993100002
Si     13.167095857500009      1.016002229600005      5.241082362300013
Si     13.372917159900000     12.162705531600006     13.773598045300004
O       3.894705511100010      1.715574768500012     13.773305527900005
O      12.940692120100000     14.613511674100009      6.006476530699995
O      12.312959515100001     14.951378191900011      2.258292790000004
Si     12.741755194000010     13.040433646000002      5.598406642900001
O      12.257651144199993     13.202053883200007     14.313646374800010
O       5.997736484400003     13.935065643700012      3.510243885000004
O      12.011977359500001     13.064610421399998      4.144181418600009
Si     12.222136452700006     13.353023827000008      2.580150986000009
O       8.105919813100000     12.836976070000008      2.268429454700013
Si     10.820006606699996     13.182262884600009      0.037429753299995
O      10.998955944800009     12.904737650500010      1.626136742200003
Si      7.630631174800012     14.107806292000010      3.142192190300010
O       8.329920320800007     14.012372996299991      4.594513685500015
O       8.249263915800011      0.381407200899998      2.335762398200008
O       7.933049619100008     10.956096678899993      0.543223659500000
Si      8.059786142699995     11.240825235699992      2.111980173400002
O       9.270193032399995     10.409094156199995      2.814786200899999
O      10.117482767899997     14.626243459100001     14.765050067000006
O       6.700576785600009     10.723540550600006      2.730243200200007
O      10.049374969199999     11.902593279899996     14.449378000400001
O       6.487058080900001     12.270656533400008      5.384543189800003
Si      8.785640774800004     10.938863690500003     14.216238617400000
Si      7.854408750400000     13.039153578199999      5.789863639200000
O       6.147561810700005      0.561797268700011     14.070985851900003
Si      8.949630582000003      1.867306432900006      2.512633659700001
O       9.351815121000005      1.818466281000003      4.066580431500001
O      11.781633613499999      1.793582875700007      4.918420260900003
O      14.025396173900006      2.038185317500005      6.087676922300005
O      13.501269398900000      2.521819647300010      2.111674892700006
O       4.261379995800007      5.181434126500009     14.453003148100001
O       4.126670075799995      2.576384233000005      5.479944308800004
Si      3.991130149500003      2.592682124500004      3.897356344099999
O       3.256120497300007      3.983234332100007      3.584624568600009
O       0.993305918700004      3.452634323600003      2.426013557700002
Si     14.191384307000003      8.594937524700001      0.983181891599994
Si     14.630565927599999      3.585836599100020      1.589435013100012
O      14.738550683400005      3.366827731700008      0.027084240500000
O       2.630083270799998      5.325437490100007      1.475855009100001
Si      2.033101015999999      4.655254462600009      2.805436021600002
O       1.352721991500014      5.784032924500011      3.742988161699997
O       0.681997984300006      8.134219919200001      0.625128494699999
Si      3.735358756400008      6.143915687800000      0.642093010800003
O       3.090781837699999      7.431319666099998     14.996057363600004
Si      0.156457870800009      5.857281944900007      4.834219506599998
O      13.730166155900006      6.028652521300009      4.054252208800003
O      14.351378011200005      5.153897384000006      1.707380828000002
Si      1.902482185000003      8.406917534899996     14.620499542000003
O      13.347853071700005      7.520138415699998      1.859809804200004
O       4.880572368399999      6.801849304600012      1.561928326800009
Si     13.264715360799997      6.028471708700005      2.482647256399992
O       0.198994788699995      4.430414074700010      5.617410273899997
O       0.428483727900010      7.147821839899999      5.784959105800003
O      13.563192644800004      8.848538405000003     14.537150769399998
O       5.217243768699995      9.157734801700004      3.984454645599997
O       5.435102663900000      2.505541042400004      3.197093348400011
O       9.910810939199997      3.287992289600004      6.166353500600001
O       6.207452069800008      6.791399145599993      3.905451013500002
O       6.144607464600006      4.760645141900001      2.246945278700004
O       7.465382379799998      6.960356979199991      1.545991225700004
Si     10.571329678200005      4.312587299400006      2.315814961000003
Si      6.408667888199997      8.225145741000006      4.664244303500001
O       7.767317374299997      2.834497324100007      2.098645125300002
O       9.729642607199999      7.901718260400006      2.284383480300004
O      11.906949290899995      5.234959922800010      2.102418534499995
O       7.864601644699989      8.685531652900000      4.140541521100003
O       9.034913195699991      9.402475095600007     13.910372628799996
O       9.438714331300007      5.305081996100006      1.715096851900001
Si      6.232954540100000      3.199989222400006      1.988170103099995
O       9.424124924899996      7.035940970700004     14.688598675700002
Si      9.318960735699999      8.921823348300006      3.499188541399991
Si     10.475768132600008      2.727242140800006      4.787350818599996
O       5.668475351299997      2.736195789400000      0.538503472900003
O      10.358434260499994      8.753089315000000      4.755269447900009
O      10.673602584299999      4.069950397500010      3.912004388200000
O      10.210981107500004      2.748172232600007      1.803502168900000
Si      6.203646587399997      6.345325768400011      2.346660668599998
Si      9.051817374600002      6.816811388900009      1.261116761300003
O       0.647410031400006     14.626425583700003     11.167816893599994
Si      3.211811794700002     12.851950428100002      9.811707559299998
O      14.361875106500015     12.431474504500002     10.318807839899987
O       3.068255488199997     14.412772994400017     10.161359160000011
Si      1.889589275099999      0.427254403899999     10.523526051400005
O       3.721176052899999     12.820046520500005      8.235340195899996
Si     14.389110373099999     13.653045067900015     11.368854070400007
O      14.889124301000001     11.493891632300004      8.028854706700004
Si      0.367841377400004     11.462727895700004      9.549190604500007
O       1.834503848699997     12.058015491500001      9.698624336300002
O       1.466245365999999      1.112248243500002      9.116330147000005
O       3.881486747800008     12.274159279300003     11.180833725000005
O      14.363309569599998     12.973212408500002     12.816708901400007
Si      2.228919700599998      1.203611734599997      7.677533482700007
O       0.442797986499998      9.943913555400005     10.077928542100006
Si      2.990763322100001     13.252431738000006      6.808902532599999
O       2.312903198100007     14.720471215800009      7.030723603300002
Si      4.979959086699996     11.924320945100005     12.334825741800014
O       2.465215519000004      1.509743567000006     11.565549751100015
Si      0.323444033199994     11.464199547200003      6.485170351200001
O       1.782788497899994     12.204920600299991      6.398575288300001
O       3.724382375499999      1.793161793500011      7.891074392100011
O       0.349955658300006      9.857632827000005      6.094874825800007
O      13.026482588100002     14.471516256900008     11.253795644199997
O       4.565262556600008     10.952974157900005     13.600897347000002
O       5.602178306300007     13.214286929900000     13.112780134800012
O      12.630008203900001     10.865170494700008     13.139087661400007
O       5.983393079200002      1.193795460399995      6.562733192400002
Si      6.557954144800010     14.495962479600017     12.954364198800015
O      10.429955114600004     10.003045201699999      7.035327789100006
O       6.067170657399992     11.270187995200004     11.335156240500011
O       6.383909694999999     14.949352184000011     11.406852154399994
O      10.613820829799998      0.000795894800013     12.264832172500004
O       8.478723125099998     14.069893036900003      9.926623224700004
O       9.819056871600001     12.277459663100004      8.359527338900017
O      10.838552162799999     13.229178149600001     10.469756324300006
Si      9.429219596600003     12.767771181000004      9.821738016599998
Si      7.474739116400006      0.273065677500004     10.270091103599997
Si      7.596778035300004     10.834532943599999     11.475878756700009
Si     11.471448070900003     14.635777577400004     10.962881438500007
O       8.650729690400006     11.507993302500013     10.465810149400012
Si     10.277492697599998     11.615689178799988      6.979959207999999
Si      7.180702551000014      0.514371200300011      7.392708323800004
O       6.690568925900002      0.628489756700012      8.922050107200002
O       8.003629038799993     11.422243499700008     12.915357276200000
O      11.447998376300017      0.868400091600007      9.934165985100000
O       7.477703032700006     13.992277636200013      7.035479773600006
O      11.690485668000004     12.280030613500003      6.559380199500003
O       8.333965209400004      1.560204254499999     10.714560837100008
O       8.551427698000005      1.328616426400004      7.187967877100002
Si      9.491220883300006      0.206545145900008     13.384799236800008
O       8.166128928799997     14.315472306800016     13.127765424799991
O       9.102607154600008      1.793801711800011     13.219111054000001
O       9.030934868799999     11.969966762800011      6.010545303300015
O       1.459852699900001      2.268508090100004      6.724889285500002
Si      3.009600134900002      2.507786579400014     12.702068635100000
O       1.538495434199993      8.068614627500001     13.081521144100002
Si      0.183310535600005      8.387637997199997      6.812994607200002
O      14.426869108499993      3.676190815900006     12.505489155699998
Si      0.885568135499994      8.444019060100000      9.673799894200016
O       1.212739308100000      8.365034361900006      8.086548376299996
O      14.659618822600004      7.508086946500011     10.072991199900002
O       2.087044734699996      7.823109955100000     10.555920029899999
O       3.865629005800013      3.748966239600007     12.170495095500007
O       3.488734877900005      6.358504234700002     12.204969252100003
Si      4.348443591000001      5.139915263600005     12.833958137200009
Si      2.029047113199998      7.003529256500010     11.959848830599993
Si     14.580920988600003      5.071767645499998     11.663963383999997
O      14.584423328499994      3.594110270899998      7.966156768800004
O       0.966953354200010      5.784913496700005     12.033567872300006
O      14.596610672800010      4.764707411500000     10.099339557399995
Si      4.861506667100003      2.329417511200004      6.880633768699996
O      13.742019344500003      8.143921886799999      7.493120973600002
Si     13.588027380500000      4.348630538800000      8.932878170799993
O      13.328110449400015      6.126907576800010     11.798442199299993
Si     13.261869116200003      7.477008236899996     10.864101114500015
O       1.769670516300007      3.208319348500007     13.440369435099997
Si      0.094892799999999      3.109911760799999      6.553784900500008
Si      0.232974869100000      2.840750999200004     13.639014820599998
O      13.178399561500004      8.757587708700001     11.814585328700009
Si      8.157591980799989      7.855305105700006     10.733626459799991
O      12.946748980200006      5.617323513900002      8.125738004500002
O      11.312356994700004      8.446035634099998     13.515377715900000
O       7.487690333999993      6.442549006100000     11.010783243599993
O       5.520541308499994      3.679697833700006      7.491425478100017
Si      9.180725150500006      2.775030641500009      7.485369522799997
O      11.368266963900004      7.520134594300000      7.031401164600004
O      12.175787817500000      7.520197142300014      9.638517371000001
Si     10.269310097999998      8.519025744100000      6.377411266500008
Si      7.506000000000000      7.506000000000000      7.506000000000000
O       6.457892246500012      8.136676045500010      6.323881304399999
O      10.282773839999987      2.671063653700009      8.601974065600009
O       8.091854842399993      3.921728047000003     11.810756883999995
O       7.547305888000007      9.245591645799999     11.253499834200008
O       7.946557521299994      7.987414212100003      9.063766843600002
O       9.418001558900009      7.735829815000002     11.867967105100009
O       6.375755043100010      4.457611228800006      9.845258999100004
O      10.457676758100007      2.962223325400007     11.229641515800017
O       8.090694041100001      3.829381836000016      7.967946788500006
Si     11.201104261000012      2.463355858800000      9.871855719499999
O       5.895580708700008      5.171451824400005     12.428120206700015
Si      6.673440786300007      4.517698082300015      8.254381549899991
O       6.849358386400000      6.037748217800010      7.730370120900012
O      12.493101469999992      3.373230623000007      9.607711015000005
Si     12.558044352199996      7.197998867600003      8.069130759499993
Si      9.763479066999997      8.068058900800015     13.445502805199999
Si      8.986235289400000      2.584772819900008     11.786166914499985
Si     12.671823239800007      9.245303596100001     13.263716591200000
O       8.890631745700002      7.747002486600012      6.718256603600002
Si      6.969520346599992      4.956882285300010     11.266279794400015
