216
15.03 15.03 15.03
O       3.415632158500002      1.674205578100004      0.445817761200028
Si     14.984487079299990      7.121576811799999      0.769531825000020
Si     13.931312595799987      5.906904974000027     13.180764051200009
Si      2.590268540499983      5.551093179300010      1.638298995100013
O      14.542530212100001      6.188338838700000     14.606463700800004
O       1.163187710900001      6.274870429200023      1.402853906800012
O       3.098032730200004      4.177176587099996      0.919998762700012
O      13.673304862000005      7.289807934900002      1.688767113400013
Si      4.132293655699990      2.948881216500008      1.153094427600024
O       3.627313361999999      6.658117074800008      1.080615826500020
O       0.129383130099984      5.423039642500010     12.268621395100009
O       0.763778442099988      1.736594623000010      1.151723306400019
O      13.619682596699992      2.994441330099999      1.932764014100022
Si      2.018868020599993      0.862373614899999      0.656539458900025
Si     14.856834379200000      2.039191156400000      2.428580746200019
O       4.210178342300008      2.450827069600010      2.718896231800018
O      13.199662364799998      7.274895048600008     12.731132694600019
O       1.473546362299987      3.161127162600013     11.562151591300019
Si      0.982976296899999      4.657168770900004     11.151903322500015
O      12.887129400700001      4.702365582900018     13.360587393500017
O       2.478353317899994      5.035036077499997      3.179961887400022
Si      4.721224624399995      7.769308738399984      0.701594112600021
O       2.319229623400006      0.570749127900002     11.783160218800010
O      14.454942593300004      0.573583181500000      3.104492638900020
Si      1.905868548299995      1.785983203400000     10.806980533500017
O       2.328223300400004      5.486634711000017     10.858286898800023
O      12.337518861199992      5.288874478899992      2.716846240800029
Si     12.385253758499985      6.947738860400003      2.595708309200022
Si     12.172608400999998      3.728744813300003      2.209762980600029
O       5.604919731099995      3.375579759900006      0.592313853200015
O      11.944573553800009      2.605195234300004     12.031482588900008
O       8.523668217899994      5.031032726799983     11.646393281100005
Si     11.629442677399982      4.070014523400007     12.590738272300026
O      10.376043013200000      4.013570799899994     13.589916414600028
O       9.734624105200005      1.727110630700006     14.696170634900017
Si      6.937292011799994      3.401321322599994     14.674169124200013
Si      7.440581164099994      5.703910323999998     12.648777034100023
O       6.700492506699985      4.470474779100012     13.445475629200024
O       8.386230876799987      3.852101854900002      0.298836836200024
Si      9.901536580200002      3.329690837000008     14.971949575900018
O      11.085793111399994      3.690691501999992      0.990837157000020
O       7.173135044600000      1.828236280599997     14.287054424600015
O       8.110738048500009      6.678155484800006     13.761994313600022
O       6.538329326999984      6.598229651000008     11.592468989800004
O       6.081379743799989      7.052927900200010      0.208428396900008
O      10.932175475899996      7.455025988300007      2.082101850200012
Si      8.497753796499989      0.921468133600008     13.994852054900004
Si      7.594311723999978      7.580807897100006     15.017847004200016
Si     11.988937331699987      1.205618786599994     11.263671723200011
O      11.399040452000007      5.023718901200001     11.331992199000000
O       8.512850678699992      7.520571341300004      1.311713326600006
Si     10.737757917699991      1.279045312100001      3.154583301400028
O       8.667201528900009      0.884597373400003     12.404476959800011
O      11.553653183399991      2.670620342699992      3.262410972300025
O       9.196072195099998      1.736891130499989      2.945465984700025
O       6.485429042699994      1.348992175900004      3.024493265900009
O      10.553325571299997      0.807038123200004     10.625671647700013
O       3.097615037899999      7.991902709000008     11.164987470900025
O       1.623662292399995      0.328377002000012     14.238533837800016
O      14.928500571599992     12.770491575000003      3.113324779200016
O       2.236558409499989     14.651847256000007      1.696009381800017
O      13.451533643299989      9.498631166699994     11.485730262100009
O       0.373464807999991      8.623081457600001      0.286977542300018
O      14.595165136000006     11.823597957500008     11.881669198100006
O       3.401965630799984     10.125482660000001     12.409013656900022
O       3.781719146199993     14.022638885399992     13.283472063800025
Si      2.287456446999991     14.568793596600001     13.014186476900012
Si     14.589896319100003     10.016694503600005      0.045053681500014
O      14.367460031900013     10.656466692800000      1.525296558700012
Si      3.577210519699991     13.816764465500007      2.100397526000021
O       0.354639219299994     11.204110185300003     14.290639004000020
Si      0.056362726800011     12.433419619200013     13.262084925800009
O       1.383212894799984     13.246181678400015     12.887119540000013
O      13.900900210499987     13.405910494700004     13.756086928100014
O       4.426361475899994     13.637628056100018      0.764738585900006
O      13.288869454200004      9.573254074799996     14.152633986400009
O       4.269253056099988     11.534547396900011     14.316500692200025
O      13.336977061199988     13.955674210300016      1.447357919700033
O       4.276182581699986      8.866114267700004     14.613532492500022
Si      4.492011536099997     10.115281356000004     13.586256972700015
Si      4.621235672399996     13.105957789200014     14.308141771500015
O       3.337909994499995     12.351969897300004      2.728831552700013
Si      2.638117167999984      9.537869717999998     11.131331390800012
Si     14.940354029100002     11.132140313400003      2.977969138600013
O       1.028569945999988      9.723336529799994     11.234280703200008
O       4.425488692299996     14.794599115700001      3.045020658700013
Si     12.762261375599980      8.825201799199997     12.778029411999999
Si     14.635594285299995     10.483789366300000     11.029269824700005
Si     13.940419727100011     14.049277001200016      2.929692266700032
O       5.061955985299982      8.468399143399999      2.086556584500007
O       1.443635179199991     10.669722002700004      3.262118053900013
Si      9.879106599499995      9.510954772999987     11.741231110000001
O       8.264628347699992     14.445286462800007      3.263041403200023
Si      7.591945565999997     13.014728289000017     14.635263721700014
O      12.502093885899981      0.150576861799992     12.355286877900014
O       9.336452195000003     12.070376204399993      3.029442341900023
O       7.565060127600007     12.781068140600004      1.210215099300026
O       9.838074428600009     11.103607197900011     11.857301192100000
Si      9.123423313199989      0.171804171400002     11.044512930800023
Si     12.431391377999994     13.919783838300003     13.338842473100021
O       9.841599127500004      9.883786920299999      1.621605401100020
Si     10.507974475100003     12.476424914400017     11.464162977500013
Si      7.534411288399984     10.115517508699993     13.475191081200014
Si     10.512993968400000     11.213435825400010      2.331813831600015
O      11.090435863200003      0.163252417399993      2.011761625600009
O      11.156551360699986      8.942327418500005     12.582542090100022
O       7.556734121899994      9.172384531199992     14.773884078100011
Si      8.006814524200001     12.937500459500006      2.745615253900011
O       8.039558460100009     11.611679534700011     13.915291336400019
Si     11.742432838900001     13.937435254400024      1.183114848100015
O       6.165874439100002     13.327520290400006     13.976930584900026
O      11.230436004099998     12.395498340500007      1.452108879100016
O      11.625926697299992     12.772212434800023     12.568782209700007
O       9.378780187000011     13.627759913800018     11.321235317200022
O       8.435777215100002     14.396995025999999     14.461311463900014
O       8.430487824399989      9.258735416699993     12.421644528400016
Si      9.583149823000003      8.359394516700014      2.191714376400011
O      11.565942346400005     14.266521382800006     14.651636868800008
O       5.993845644200001     10.121129614600001     12.967836388400025
O      14.217034507099992      2.759845117199996      8.268571382800015
Si      0.918245944800000      5.518865656900003      6.550660888900019
O      14.612457476200001      5.255837654000009      7.419011338300029
Si     14.060149396400007      4.330776720200009      8.631386146800033
Si      3.464170265599997      4.010236491000010      6.426390480200020
O       1.380536382099996      7.076762103300000      6.485456768300027
O       2.717206702699996      3.300886720300009      5.163090936600030
Si     14.318962416800009      1.389831330199987      9.122139608100031
Si      4.222379996899996      1.909832376500001      8.619942344600030
O       4.194965300500001      3.148055516100005      7.570217982000021
O       3.105277327499991      2.054856593600010      9.759171129100029
O       0.678764309400014      4.947342732400006      5.064233601500030
O       2.238405818099987      4.785386677000007      7.176248285800037
O       2.309872516600002      7.151866453499998      8.892794119100017
Si      1.661400470100001      4.023840669100010      4.155723498100014
O      15.005704900100007      4.619183086399990      9.898292342000026
O       4.588536419499990      4.971745758800001      5.764189903000013
O       4.054935898699994      7.142769177500007      7.013858543700001
Si      2.594205682499994      7.657888101099998      7.395343041200016
O       4.652130585299986      6.284894447800020      9.849036067000025
O       4.750011348399997      1.191907858599995      5.109473824200020
O       0.609254322600003      1.344329999800005      9.999583570100031
Si      3.127888063099994      6.703257548199999     10.199434687100020
O       3.971893394499991      0.643067143800014      7.642946496700028
O      13.035616920499994      1.277603788799999     10.066050415900028
O       4.906806285299995      7.365326746600010      4.599588786800034
Si      4.937801639599988      1.220181613500005      3.492607243800022
O       0.755548590499992      2.912680732899999      3.426583328700027
O      12.501102326299982      4.628926930599999      8.965947649900025
Si      5.085540378999984      6.491766104500006      5.978571898900015
Si      7.936084637400000      0.967480183299997      3.590888418400025
O       5.649683384299991      1.740592176299998      9.364433198500022
Si      8.353214966299975      4.460746744400000     10.144516787200004
O       6.550516593900002      6.439643642300017      6.701910328600031
Si      7.262802278099986      1.757361425200004      9.332102964500011
O       7.183335938899992      5.337283428400000      9.437159515100010
O       9.779401122700008      4.488168591800015      9.372968934600017
Si     11.205954882199986      5.186386988499998      9.755747846500030
O      11.097218208299989      6.752487447500004      9.517949749000017
O       7.720477177299989      1.991604993600008      7.795949128700021
Si      6.239567125199987      6.552096863099995      9.972086171500006
O       7.808339445399980      2.962679282700004     10.230344720100009
Si      7.515000000000000      7.515000000000000      7.515000000000000
O       7.881817091099995      1.415943457800012      5.142109690100012
O       9.040771370699998      7.451001699499995      8.119206130700029
Si      7.767399715399997      0.872959942900003      6.642929249100010
O       6.635858536700005      7.758290741499996      8.908625413800014
O      11.003673049199985      0.583651795299999      4.585991888300028
O       7.965956562699986      0.414218977500000      9.929814195700013
O      12.649619418899977      7.997378483500012      3.818723842000030
O       3.889778169500008      9.808759438499996      3.808969887400029
O      14.447794686699989      0.098615088100003      8.187405689100018
O       1.285301690900001     11.209826622000005      7.966299307300013
Si      2.744369403799997     10.591033939000013      8.207140351500030
O      14.288624583799983     12.626764177700016      7.402112912500000
O       3.028027341899993     11.679586483500007      5.220474224700022
O      14.309015466799998     11.036959655900008      9.570940026100022
O       3.869787601799994     11.605970657900016      7.659285539600037
Si      4.238173997699990     12.137340619299987      6.183914263100020
Si     14.717924803699994     11.201892592800004      8.030430374300018
O      13.917376357599995      9.958040883100002      7.340944698700019
Si     13.500397579199998     14.025703567000013      7.538807265900018
O       3.091464290099997     10.269646498199991      9.755181873800019
O       2.708853310099990      9.247851796400003      7.329212803900022
O       4.285473764899995     13.727237354000007      6.005555305300023
O      14.001618262900006     10.352591877900002      4.046377281800011
Si      4.833364657899991      0.151862331300006      6.367137733300019
O      12.658112626199987     13.711569379200004      3.876049918300033
O      12.967390610299983     14.654941155800019      6.159931470899995
Si      2.930793822900001     11.117617189800010      3.714116278500015
Si     12.579990802799980      9.586110751000009      4.182990917700018
Si      5.054803128199991      8.694129368199993      3.660853655400009
Si      7.940230015499984      9.112309996399997      4.764554834200017
O       7.797525510700016      8.474683843700012      6.237812621700030
O      11.556394108900014     10.507543777099995      3.333035659600023
Si     10.323899453900001      8.022963077100000      8.949519545300026
O       6.843452397800005     12.378758784799997      3.710458204800027
O      11.408962459899985      8.790366589599994      8.038254434300036
O       9.075559900799995      0.000051988000008      6.941704558999998
O      12.177627034099981     13.788636672800001      8.423055943400005
Si     12.292284965199993      9.853872536100001      7.212701953199996
O       6.390129820399998      0.027239958700012      6.783487899200008
O       9.047564645899989      8.476665293599988      3.746651000500019
O       5.708302665099991     11.528301195000017      5.847409993000007
O      12.018169360099989      9.572271142699998      5.676290541300036
O      11.244495657700005     12.147936458699995     10.086260494900031
Si      9.377045560899994     13.484807824299986      6.638679281200004
Si      7.154504856999988     11.851925325799998      5.204466502800019
O       9.731022220800007     12.779988607399998      8.039532048299996
O       6.542780272399998      9.185417112399989      3.977847661300011
O       8.207543187899988     10.645793381400006      5.140888120400016
O       9.904288605999998      8.942650908300001     10.224718496600026
Si     11.813627722200007     14.326952516100009      5.096000075900027
O      11.789064630299990     11.303943611800003      7.653671531200030
Si     11.229572438700000     12.493626380300006      8.547214825000019
O       8.018537069999986     12.939298939300022      6.005842778100012
O      10.692898332499983     13.326628802800006      5.692508053000019
