216
14.827 14.827 14.827
O       4.792180276400005     12.427175329500004     12.324108606299996
Si      5.520033417100016      8.877084956099997      0.389728324499993
O       5.436185823300007      9.793420898300012     12.399016386800005
O       3.048541213600014     11.754015582799999     14.772820584599982
Si      2.039387940100017     12.679089575799992     13.961549703199992
Si      5.206105784900004     11.105856187700001     11.532690811500000
O       3.307516517800013      7.806162739300009     12.163128746499993
O       5.193241191200020     10.437999112900014      0.223459060399995
O       7.090071684399990      8.722555026700025      0.456431820399985
Si      4.195276448500000     11.424172974299996      0.997493005199992
O       6.483977215299999     11.522282534299993     10.595676217499994
Si      1.786115377800006      7.740796325900003     11.708247399799991
O       5.022810062099996      7.994252886900006     13.979943316199991
Si      4.794281155200006      8.298583327099994     12.428058155699981
O       5.603491810499991      7.478644188600012     11.313292747899991
Si      6.859853019199999      7.668724045100000     10.334001426700000
O       3.865263316300006     10.613197078799994     10.751552269599987
O       1.309868037500000     11.203973519600000     10.500210852700004
O       3.208562535800016     13.019267115400011     10.275033639100000
O       7.495000711399995     12.921109785100008      0.302446436599999
O       2.634911751600013     13.666231074500010     12.819040688099996
O       1.721649813399990      7.238941885000004     10.186781063199993
O       7.414779324699993      9.176014419299991     10.410822290699997
Si      6.570647512100010     13.174455698899996      1.623021512199997
Si      2.798916047300015     11.484069502299997      9.912795983699992
Si      3.786193629100004     13.539998238899994     11.713126852900015
O       1.068148261300013     11.683759243199995     13.144025747399997
O       5.021469809600001     12.765529671899994      1.364154578399986
O       1.321300243099999      9.213471336100021     12.074701957299984
O       1.475530644000006     13.646085463500006      0.291107644699991
O       4.851156326300001      8.385468777700011      1.768740651599993
O       7.988743823899994      6.738057487100005     10.985805636699984
O       0.819153206999999      6.733325569700011     12.492967916500003
Si      0.712295364000007     10.667062009599999     11.939310942899985
Si      8.551366553099996      8.737162811100008     14.676127375899984
O       8.733407523299988      8.074651560600017     13.228194152200000
O       9.139683827600010     10.201429102099993     14.456719042699993
O      10.219869505600009     12.338950271400009     14.299883227499988
O      11.597852594000010     10.194230932700002      0.626305176299997
Si     12.448438372400002     10.691750792500013     11.775421294499992
Si     10.632972193700001     10.763615694500000     14.271082533799996
O      11.365311174400007     10.280898371400006     12.900685016399992
O      13.981321503899995     10.368624324000006     12.077107658300012
O      12.369843409100001     12.264044526000003     11.731035851499998
Si      8.905550662100008     13.316761425700001     14.406660147399991
O      12.187444743200006     10.025206212699999     10.333830207900006
O      13.255721681199995      8.050623794800002      0.872729259999988
O       9.388922226400007      8.067492515000005      1.021910351899991
Si     12.292848040500019      9.124714120500002      1.640517861399986
O       8.482407467999998     13.753928340199993     12.896717047199992
Si     12.194853899900002     13.817805089500006     11.553850228599991
O      12.686682653900013     14.237860910599997     10.090690320799988
O      10.608800078400014     14.010840673000008     11.503418912099976
O       7.585111244499992      2.047842721100008      1.295031952399987
O       3.705110333500000      4.007834473000000     10.661736141699999
O       4.784867966600014      5.677672519700011     14.529218445899994
O       5.674794737700000      2.373732432199999     11.162232272799995
O       4.605753172900003      0.055991587900009     11.506382863299995
Si      3.412418109100007      5.088497555999997      0.259519497499986
Si      3.928411235300023      2.247616397099993     14.468404770299998
Si      4.711598579400013      3.489260510900007     11.814046699899993
Si      6.887589314700016      2.532741129900008     14.781303947599969
O       3.789257034399996      2.805384182000001     12.958295141599995
O       5.678578248300011      4.598020275300013     12.401794909699992
O       5.467028087899999      1.741182523499998     14.627626037999992
O       2.878058767200007      1.064806955500009     14.712175052900003
Si      1.506557042799998      0.420895257900014      0.462644589299997
O       3.617037576300011      3.515417749599995      0.618962936699994
Si      6.131592600600019      5.148510719200014     13.845819683600006
O       6.592063228099999      4.093008972600001      0.129247885199991
O       2.223988684800023      5.249683571500019     14.036211817599989
O       7.425661900899996      6.006409705300011     13.483658453100006
O       1.570254100400001      2.548689227299998     10.758885281400005
Si      5.039715284699989      1.115688148199994     10.387607371199994
O       2.963742828800018      6.009304918499995      1.458208315299983
O       7.826555095899997      2.466098377800000     13.470195571399996
Si      2.826419585200004      2.902041924700005      9.831733835499993
O       3.705511081400017      1.568187632100005      9.610462007199990
O       1.481614383900000      0.816561354200011      2.028004739499982
Si      0.745548271300005      5.483104864199999     13.489462560499991
O      10.133239683899991      3.530290791500003     12.074034499599986
O       0.403158103800008      4.111388752100017     12.725979923899986
O       0.405788427199997      6.660277916000010      2.106863157199996
Si      8.523488501500005      6.670832568500013     12.500404247899981
O       0.236938983100005      0.826209991399993     14.378383936799990
O       8.234617016300009     14.085258410299994     10.167343096999995
Si     13.939808231400004      6.594704505800006      1.133419428899992
O       9.142539990299994      1.219595582400002     11.748475306199996
O      12.021005642900008      3.529695287800004      0.875485414599991
Si     11.527411450899985      2.126164893400007      0.279577547100002
Si      9.070686488800002     14.449955426200010     11.541611576699987
Si      9.334146967099995      2.364898591700007     12.868002444599984
Si     10.157580809699983      0.079702950200002      1.939060992699992
Si     10.626042684600018      4.897004898300009     11.348232754399994
Si      0.248724853700003      3.077915991300017     11.500816942299993
O       9.970711406000001      6.000302270200000     12.323114063699974
Si     13.836147914300014      0.961609218600006     13.338964004199990
O      12.214835927699999      5.255040952699997     11.086870228599990
O      11.291154593299989      1.141855825699992      1.533265814399993
O      14.480224802200013      5.841424236000011     14.627302964100007
O      10.039543931400008      4.846209038799999      9.842909036699997
O       9.466281285900008     14.487628720900000      0.542002595200005
O      13.092172772000005     14.483989191600015     12.724136219199972
O      12.766735133100003      5.755579501400004      1.860901871099991
Si     13.283638185600015      4.951909018899999      9.846943206799978
O      12.696894678800000      1.716532453000012     14.131407584800005
O      14.327033846200008      1.794464842300011     12.069215757699984
O      14.248369754000013      3.787196579800004     10.339135318399995
O      10.203236228300005      2.133625411300001     14.206270605799986
O       4.279610051400009      9.219092651200002      6.806084945899998
O       5.182429190899997     11.745475181100005      6.799641507899995
Si      4.514517082500014     10.558581104600002      7.644844947999992
O       2.367597610100019      7.892270385100018      5.810266261499996
Si      3.965226564900012      8.174330137100002      5.625488644599990
O       4.281618243400014      8.965280186700008      4.259162263400005
O       2.320535569900021     12.452079704600003      5.064189369600007
O       5.620417524499998     10.104619538699996      8.708123984199997
O       6.924689558800003     13.071303272500009      5.228741885700003
Si      5.845552264700000     13.164145375799995      6.438256151100001
O       7.081159444000011     12.171090867100011      2.755870488699999
O       3.135854262600004     11.108020225799995      8.367362010499999
Si      3.749615237799996      9.043039575599998      2.750651832499992
Si      1.108233338800005      8.666381878899998      6.484721969100008
Si      7.413499999999999      7.413499999999999      7.413499999999999
O       7.173921438800009     10.531892516800006      4.742798362800023
O       7.240531618300007      8.307162116000020      6.046057916300007
O       1.309821306899996     10.267836729500010      6.225048626099992
O       6.507132077500009      7.404272069500016      8.776890698199985
O       2.393264403700014      8.150113069600016      2.761147681799999
Si      7.626697325199998     11.992173054500013      4.238888237699993
Si      0.941054403200002     11.636995394999998      5.426832613599998
O       6.753811103500011     13.665346261400000      7.713433340999996
Si      0.929822688799996      6.816293634100011      8.856520318399989
O       3.557705723000008     10.590815030400002      2.260524905599997
Si      2.914788462800022     13.917929396099987      5.578871618800004
O       4.843236810700006      6.798910010200021      5.642591292500007
O       0.907508240300005      8.221091558800003      8.034654764699999
O       4.520576743100004     13.991919250399997      5.893280182900007
Si      6.972637452299995     10.426817428300009      9.505583422999988
Si      8.146083495599994      9.314236277500006      5.124707208700007
O       8.157576275800011     10.682093814100007      8.444624640200004
O       0.084041308700001     12.685247550700010      6.306646199700001
O      13.262065510100014      9.959189683900004      2.612828979399987
O       8.819723323700000      8.792523287199993      3.747599262599999
O      14.498693643600003      8.218227639300009      5.885016385300004
O       8.815723036600003      8.072961726000011      7.960510347400010
O       9.293737737000001      9.865787964599994      6.143072832800006
O      13.083493843800001      9.464713860500018      7.795650856599991
Si     13.036967504500000      8.758011537600002      6.327068572099995
O      14.728123799200008     11.272851032900002      4.238894199599986
O       9.238215425199991     12.016353357200003      4.088644770599980
O      12.679501099600003      9.870271282200012      5.238950572800003
Si      9.241359979600009      9.655525706700002      7.746531914899986
Si     10.689266039700014     12.737180727300009      4.061993115299997
O      12.020530050300000     11.855205157100002      3.915073435999984
Si     13.196120285300001     10.762034586400004      4.002106351699987
Si     12.159047747199995     10.389849339699994      8.762989420599995
O      12.593429987000002     11.944336400699992      8.615341438699987
O      10.642713635499993     10.050490917999996      8.355450279199991
Si     12.976434231800008     13.524759200299989      8.685961198899994
O      11.947276320800002      7.570975409400000      6.307522085900008
Si      9.630065274100009      7.954890469900010      2.603627177799978
O      10.701214871500001     13.491308784699996      5.481502254500004
O      10.780769591000007     13.677676777300002      2.753492250599983
O      14.583560833899998     13.742010204000001      8.535169354599990
O      11.201868448099995      8.387128956400010      2.617291266299995
Si      0.512737394100012     14.004665178600005      7.145592250599990
O       2.121289145400009     14.152957272899995      6.994806498600004
Si      1.956001096300004      6.609889284300006      2.536689614499991
Si      7.523238594400010      1.170308831799992      2.639725085999987
Si      7.419428552699997     14.666479707400002      8.841507741699989
O       7.008715686500008      5.927485541900009      6.882827283999988
O       1.875532854200000      5.845206300799991      7.956966192100005
O       2.470071880300009      0.236970249900005      4.490184590899993
O       2.475353094100004      3.445521984499991      8.376978015299994
O       2.549843256900015      4.193381728600008      5.902951980300002
O       4.444917866400012      5.006167892700002      7.383050917500000
Si      2.845109617600012      4.670546270400028      7.405690832999998
O       6.018432381900001      4.188854700100001      5.325309459299996
Si      5.561221696700014      5.457363469800012      6.279397023799993
Si      1.534382777300015      1.240630378899992      3.590881186199993
Si      1.756702622399989      4.243058871300001      4.516375845000001
O       2.219364304100022      5.585210084500013      3.755067552399998
O       6.989621741899997      2.053678613499997      3.901580940999986
O       1.977186883200016      2.807572319699996      3.757184024599986
Si      7.345258762100012      3.291406389700005      4.917579781799987
O       6.662240304299999     14.667143725700003      2.267398311599985
O       6.097261000400006      0.566892636000012      9.358879841599991
O       8.074524296200002      2.632027220799995      6.215410001299992
O       8.393390109599997      4.271572573899998      4.173011167700001
O      10.618162788699996      5.584833044200001      7.384464533999993
Si     13.533744860299992      4.026583745899996      4.925117633299990
Si      9.182787463800000      1.923412650199997      7.165339269900003
Si      9.598104468800011      5.210353716100012      3.716578537399993
Si     12.117125476000011      4.336068926699999      2.249561575999990
O       9.128801082200001      6.445383697900012      2.836041787099991
O       8.400435389099995      0.895257082299994      8.127293093399995
O      10.626708371100010      4.355350210000002      2.844872931599985
Si     11.439382326699999      6.063488397899991      6.092047510800009
Si     10.739730646300009      4.398795876400004      8.460825793499998
O      12.346521940900008      4.282880151200007      8.702233969399996
O      12.529763481000009      0.401552903799996      5.151010240499990
Si     13.902517558000008      1.191651885600007      5.393953673400000
O       0.212668478000001      4.521340312500013      4.819556110199983
O      10.372038715099992      5.937531877199999      4.915924761600014
O      14.269011241799985      6.161460940600004      9.266439966599993
O      13.014435783600009      3.697221220500010      3.428662387199995
O      10.293421750599997      1.060927195999985      6.384155474199995
O      12.678449237300002      5.115038015600004      5.723294966100001
Si     11.396308637099992     14.740313301800009      6.186541845999998
O      14.736265140100002      0.559213287300010      6.602352769599994
O       9.051848063899996      0.730020330600005      2.931576259299987
O      10.039806527400010      3.044104435099999      7.955795349900001
O      13.508147134600005      2.691293787499991      5.807719270399998
O      14.824831010299995      1.140483811899993      4.082499697499986
O      12.111411677600008     14.306722149800006      7.562433367100006
