216
15.1 15.1 15.1
  O         4.2359467066        1.4039596797        3.5976925860
  O         6.4850745248        2.2018976077        4.7100311533
 Si         5.0629470904        2.6584029051        4.1585587452
  O         5.2862924546        3.5544085416        2.8471452227
  O         3.8591222596        5.6678780474        2.9839506382
 Si         4.9328588386        4.8983004864        2.0719080379
  O         6.2835576585        5.7387459287        1.8151212817
  O         4.2484367887        3.3802040606        5.3427235053
 Si         2.9269392734        0.9114713210        2.8489836278
  O         1.4982678781        6.8410992872        6.4473418880
  O         2.2912194452        1.8126125556        1.6392013433
 Si         0.9925343864        1.2920949360        0.7937768976
  O         1.7424718954        0.7870124219        3.9365488156
 Si         5.0724172908        7.0941575795        6.5502424519
 Si         3.9932246877        4.0551757230        6.7819396450
  O         4.2480096957        4.7218326737        0.6437631515
  O         4.7139537912        5.5221688859        6.7489638642
 Si         3.2682173421        7.1407893299        2.7245516058
  O         2.4416643339        4.4129972512        6.9948342516
  O         6.6576784117        7.1616827292        6.6091650633
  O         2.3514852680        7.3944131719        4.0008004811
  O         6.8397665668        7.4695585388        3.7007323424
 Si         7.4651452231        6.4103906473        2.6614184727
  O         7.4818427561        1.4999991949        6.9992768871
 Si         7.8494425226        2.1265596962        5.5487230934
  O        14.7680632140        1.5597475707        1.6639328854
  O         8.2680284864        5.2005279792        3.3825689693
  O         8.8020667699        1.0308323591        4.8772814457
  O         8.5745995218        3.5902152954        5.4910363804
  O        11.3194235025        3.7701951926        1.1899618935
  O        12.5677626376        2.0631687034        2.9077364870
  O        10.1398664922        5.7984455477        5.0329711525
 Si         9.3561995091        4.5253990078        4.3896261936
  O        10.3849883941        3.5376883355        3.6077095542
  O        10.3810508244        1.4372204097        1.8872032450
 Si        11.1668146896        2.7350621987        2.4269196847
 Si        13.6413149750        0.8913337633        2.6058963955
  O        10.7006097341        6.3463716688        1.3410066657
  O         8.3384385882        7.3083398587        1.6541692123
 Si         9.9808834655        7.2187927895        5.8118351375
  O         9.0871935089        6.9258739334        7.0973801478
 Si        12.8359788899        7.1673767071        6.4666272989
  O        14.2956103774        0.3944432939        4.0047077458
 Si        10.6689905408        5.0206649952        0.4002946339
  O        13.1268911711        7.1506150598        4.8709619401
  O        12.9702038057        5.8104678690        7.3267547016
  O         8.7351780824       -0.0079179164        0.7091885795
  O        11.3341131801        7.7082386603        6.5181298822
  O         2.5868571439        7.2422984267        1.2578715385
  O         1.1833624699       14.7971559866        0.5454720738
  O         3.1555495509       14.5347228906        2.2056687643
  O         4.5601657718       11.5576216379        0.4700051447
  O         4.7915490999        7.9395325029        5.1893044100
 Si         1.5332333941        7.9490242805        5.2529992116
 Si         3.0101430560       11.2411605909        0.3167577018
 Si         0.6179024854       14.7438495908        4.0563828266
  O         0.4481566053        8.5639677631        0.6998904337
  O         4.4904177310        8.1856615175        2.6712746860
  O         2.1226127481       12.3591348705        1.0231173049
 Si         0.9354809353       13.1468194210        6.7301195744
 Si         1.8323202484       13.7861191576        1.6212983088
  O         0.7758175660       13.6873484665        2.8350068518
 Si         5.5582143617        8.4448832628        3.8443330223
  O         5.9738974617       10.0025455712        3.6939647508
  O         2.1329431896        9.2907501134        5.9084514558
  O         6.6967119619       14.0244122722        6.3798943065
  O         2.6794008595        9.8386370809        1.0247946548
  O         0.8596146398       13.9167163742        5.3577127251
  O         6.7522361713       11.8734333977        1.7243525686
  O         6.9990315466       12.3557624612        4.2743310290
 Si         7.0160544950       11.1544403606        3.1853235411
  O         1.8127655621       11.8156635622        6.5382684753
 Si         1.8222282590       10.3142758346        7.1091950164
 Si         2.0116682686        8.5004579817        0.4289094166
 Si         6.0013608409       12.2354841023        0.3019194806
  O         0.1666496866        8.4175480893        4.5711083934
 Si         7.5583398669       12.8321128548        5.7145202350
  O         9.7587126483       14.4640366802        3.3121122712
  O         7.6332037096       11.5541244372        6.6846094301
  O        11.0070104114       15.0927099068        5.7512240612
 Si         9.9204190968       14.9975043257        1.7986513173
 Si         9.8628003083        7.7235739570        1.3838867213
 Si        13.0566296160       12.3235622512        6.7499559560
 Si        12.2778702735       11.1880912171        4.0677200488
  O        14.5289067452       12.8158150559        7.1588934895
 Si         9.6701955392       14.7848565636        4.8868923041
 Si        11.4695274834       14.8532031409        7.3001363967
  O        12.7452569395       12.4124629668        0.3188783503
  O        12.0431833606       13.3496597544        7.4622958211
  O        13.6964251536        7.8611558829        2.4524855582
  O         9.3750881792        8.4116016540        4.8806913879
  O        13.8394360525        8.2561648087        7.0835247595
  O        12.3334839890       12.1158837851        2.7497669546
  O        12.7409577402       12.2683003720        5.1769958270
 Si        13.9976307161        8.2991541039        0.9405616879
  O        10.3839879701        8.7281721404        2.5291753039
 Si         9.7183273472        9.5485347775        3.7606270703
  O         9.0397105549       13.4654946635        5.5745637341
  O        13.1234799597       14.6210686989        1.8975647934
 Si        12.2943735399       13.2539068284        1.6000751240
  O        13.2840573367        9.7341319773        0.7077404640
  O        10.7784721318       10.6237192795        4.3215563338
  O         8.4396844158       10.3767211880        3.2246785628
 Si        13.7891246072        8.3378588660        3.9797883550
  O        10.8565202457       13.8457700025        1.1842485789
  O        13.2019742884        9.8493933169        4.0840573211
  O        12.9713492184       10.7764063380        7.1552814823
 Si         4.2971346776        1.4516561055        8.5666815717
 Si         5.5119809437        1.6991614962       11.3803473994
 Si         2.3185795450        5.9268533272       10.5774107226
  O         4.4935664377        2.9082227095       11.5579430449
  O         2.3551454003        6.2025088084        8.9735187766
 Si         3.0651530382        3.3529517777       12.1073216239
  O         1.9452772365        2.1953259728       12.1953587835
  O         2.5095141421        4.3917609746       11.0146119022
  O         3.5440483209        3.9306657398       13.5365027207
 Si         4.8071438216        4.6818372928       14.2491632108
  O         4.9424034506        6.0680521853       13.4478438441
  O         2.7184973195        1.0994933770        8.7422959185
  O         0.8355138315        6.2922879915       11.1606544171
  O         6.3897332765        6.2907166227       11.3235487891
 Si         5.0297245453        6.8110139970       12.0296255690
  O         3.6310427343        6.6810736527       11.1858671191
  O         6.9947594908        2.3613688449       11.2475821470
  O         5.0419457346        1.1113346101        9.9668654777
  O         6.3526195072        4.1589215608       14.4508967755
  O         5.2734803255        0.6208677051       12.5961977072
 Si         0.6954202992        1.4643306834       12.9286932671
  O         0.7933703043        1.9584000618       14.4585933105
 Si         1.3279932299        0.2516810962        8.7971160308
  O         5.1865355039        0.4700326585        7.6300202703
  O         4.4097140830        2.9802565354        7.9487960726
  O         0.2484734481        5.1314594518        8.0150580059
 Si         1.6612309736        5.6943632280        7.5859628626
  O         0.0702372943        1.1851544034        8.3357333157
  O         7.4725980110        0.0810310383       13.6064003553
  O         0.7799408965       -0.1571140308       12.7300068272
 Si         6.7622951775        0.1118317988        7.4940025591
  O         7.3807158043        6.8441076252        9.0401289268
  O         8.2573022762        4.7678791511       10.4534154063
 Si         8.2528216966        3.4058996918       11.3426912416
 Si         7.7837811556        6.3307716797       10.4967064284
 Si         7.9447835254        3.8350935918       14.3778130669
  O        11.6390001306        5.3568003957       14.2381249767
  O         8.3368769682        3.9466851031       12.8397260202
 Si        13.6530227654        1.7891233194        8.4474831784
  O        14.3284003630        1.8877759658       12.3475138029
 Si        14.3015780540        6.2745253944       11.1826661880
  O        13.2237568311        1.8110282676        9.9835829842
  O         9.5846485857        2.5266140554       11.0965879523
 Si        13.2234619033        1.1323025639       11.4196838195
 Si        12.6988424016        6.5195163838       13.8153509701
  O        13.6734510174        5.9041523613       12.6557113044
  O        13.6884326985        5.3487702559        9.9626405579
 Si        10.1049696765        1.1496808935       11.7904000238
  O        11.7057722413        1.1722705189       11.8834377693
  O         9.7427664466        1.0232629310       13.3721273131
 Si         8.5526898939        0.8654656647       14.4612223155
 Si        13.8237619753        4.9034832328        8.3779287564
  O        13.5224155097        3.3519658916        8.0300429042
  O         8.0971328983        2.3338408764       14.9399717353
  O         9.1045013507        4.7251075995       15.1150020226
  O         8.9602458918        7.3976592241       10.9338492372
  O        13.5296964148        7.0757116249       15.0943161906
  O        12.5976829960        0.8668152884        7.6284170319
  O         9.4434199508       -0.0043526466       10.8502885283
  O         0.3887716780       10.0636350897        7.7895210274
  O         5.5025457657       10.3015456059        7.5429170320
  O         0.9578738320       14.6334013571       10.2091550424
  O         5.2646083025        8.3780448227       12.2731974666
 Si         4.3913656817        9.4288305621        8.3285541741
  O         2.2695754655        8.5680371764       13.9180989769
 Si         6.0536442562       14.5109579843       13.3977328731
  O         5.5849567914       10.8626138438       11.8834505004
 Si         4.7197747934        9.6192043550       11.4159756367
  O         4.8812542744        9.3474690281        9.8482512987
  O         3.1602344867        9.8195106950       11.7078454716
  O         0.7171761305       10.0662364621       12.2723596706
 Si         6.6782717910       11.8036451148       12.5607555779
 Si         2.1615040644        9.8825609275       12.9452140123
  O         2.5847095327       11.1560620521       13.8577328658
  O         6.1295865690       13.3041003083       12.3442348084
  O         6.8343876850       11.5637537461       14.1634305487
  O         2.9616515150       10.1433266816        8.2367967760
 Si         7.0650426683       10.5737835051        7.8205577627
  O         5.6792872874       13.7788323144       14.8479655039
  O         1.5851196169       14.1345300272        7.7916622843
  O         4.3329809384        7.9379961586        7.7106910590
 Si         0.0962810788       14.1203453865       11.4860293439
  O         7.2436403474       11.2432826320        9.2765384612
  O        11.8795427873        7.8539815344       13.3608049379
 Si         7.7599287025        7.5645746451        7.6748012266
  O        15.0313147399       12.5119696453       11.6472307653
 Si        10.8169771429        8.9995642949       13.8178151575
 Si        14.5685217867       11.0814123780       12.2926572783
  O         9.9927044349        8.4961186315       15.0951136187
  O        13.6876872922       14.6879754158       11.3244489043
  O         7.8631257701        9.1696602123        7.7897434637
  O         7.6373131681       14.7135016000        8.7978825732
 Si        12.9311809194        9.0568434998       10.6942751595
  O         9.7535859064        9.1964661017       12.6383726415
  O         9.3559078280       10.0661551682       10.2181893481
 Si        13.9329697297        9.6773821777        7.8136908498
  O        11.3924247771        8.5766204059       10.6933224126
  O        13.3689248339        9.5901607321        9.2754768923
 Si        12.9171656203       10.9460062658       14.7985906168
  O         8.0754240405       11.6499361854       11.7849598459
  O        13.2961358770       10.3169369916       11.6411727047
 Si         9.1337637920       14.3927782292        9.4137345790
 Si         9.8334113848        8.7797759695       11.0839016943
  O         9.2764318055       12.7870386797        9.6807359301
  O        13.8466919441        7.7931164487       11.0060203614
  O        11.5683330024       10.4056284184       14.0781682737
  O        14.1589186918       11.2449194318       13.8279636758
  O        10.2220207187       14.9384202786        8.3343739254
 Si         8.5260019962       11.4581896155       10.2437974384
