216
14.721 14.721 14.721
 Si         1.5026982509        1.6061970916        4.8105295781
  O         2.9468099177        2.2901047761        4.5784534309
 Si         4.2577997811        2.3587096926        3.6473125836
  O         5.6043771487        2.5424495932        4.4979742050
  O         4.2493405923        3.6667781350        2.6986721467
 Si         3.5112569704        3.8620014221        1.2891329195
  O         1.7912615901        4.8167490825        5.3224120224
  O         1.9564483864        3.9208865750        1.6335011689
  O         1.5549483277        0.5868502368        6.0417632896
 Si         0.5616274062        4.6602868234        1.8599990532
  O         4.3372522231        0.9891225507        2.7775489554
 Si         2.6647053642        4.6361994296        6.6643483200
  O         1.1647239308        0.8274075925        3.4435508959
 Si         5.5135916230        5.6041836899        6.8233858514
  O         0.6559622344        6.2203398705        1.4739434696
  O         6.8903002644        4.8986055637        6.4529750949
  O         5.6244184292        7.0802406480        6.2218970663
  O         4.1619649277        4.9925233774        6.2171280141
  O         0.3488476211        2.6949629917        5.1499874117
  O         3.9116842515        5.1614365703        0.4865934616
 Si         7.1426416444        2.4037436302        4.0235242957
  O         3.9363382669        2.6118559089        0.4020244348
 Si         0.3130308388        4.2993771774        4.9233091265
  O         0.0671972246        4.5863444554        3.3752126053
  O         7.2015022293        2.5282569443        2.3825206495
  O        14.2304756811        3.8428966845        0.9773573258
  O         7.1950687556        4.1602286512        0.0883871426
  O         7.6007177833        1.0587334027        4.8190934648
 Si         7.4924491885        0.5143624744        6.3418449972
 Si         8.7460304828        0.4578320894        0.5812685809
  O         8.1004040672        3.5179826641        4.6566165269
 Si         8.0044908322        3.2043379710        1.1091022350
  O         9.0837079675        4.1686088409        1.8019909553
  O         9.2521842249        5.6515326543        5.3104199074
 Si         8.3492233024        4.4727722734        5.9262157768
 Si        10.8565451348        1.0452510493        2.4045587589
 Si        10.4987312432        6.1727026137        4.4069393481
  O        11.0200576801        5.1414122256        3.2518670831
  O        11.1101367417        2.6372871520        2.4439183387
 Si        10.6745149643        4.1443202680        2.0198163050
  O        11.6991593167        6.3770960605        5.4813850766
  O        13.9026759296        4.9918888559        5.8055369097
 Si        12.7634087598        5.8382517048        6.5811314130
  O        11.7743095879        0.4067822429        1.2338174913
  O        11.2916969395        4.5050982121        0.5619571152
 Si        13.0897669945        0.6436674857        0.3484739780
  O        14.3023132510        0.8971836202        1.3914339934
  O         9.3560250440        0.5735967967        2.0639085557
  O         8.6694428195        2.0393660239        0.1654244118
  O        11.1260084980        0.4079462887        3.8432410088
  O        13.4171953102        7.1157139039        7.3554309038
  O         9.0834116189        3.7638392981        7.1932178499
  O         5.9906564485       14.7171897567        6.7199069840
  O         4.7489357551        7.4978942652        0.3937479319
  O         7.2668466782       14.6512538799        0.5615482004
 Si         2.2111045145       10.0305025956        0.7692327100
  O         5.3067702214       13.4976452315        1.4757031723
  O         3.1961744849        7.8553754930        5.3228733560
  O         0.9797030429        7.7717559667        3.6039658058
 Si         4.3707517889       14.1192846043        2.6008485460
  O         1.4672801648        8.6662365154        1.1515443253
  O         2.9464539866       13.5869671734        2.1141226945
  O         5.4855784641        8.9924283305        4.5779305246
  O         6.1222261157        8.8555758699        2.0299763032
 Si         5.1288131110        8.9909538448        0.7755886167
 Si         4.6970819012        8.3155119505        5.7967257300
 Si         2.6297608770       11.3297046924        5.0408091655
  O         4.9819708582       13.4887493209        3.9397654866
 Si         1.7681934191       12.5896269318        2.5014904969
  O         1.9610721034       12.4287498355        4.0908821006
  O         1.7248375459       11.2033070787        1.7348189446
 Si         5.5524519791       12.0640311767        4.4007876233
  O         4.2458032811       11.2991938160        4.9851614018
 Si         6.4901090391        9.5171202439        3.4408385675
  O         6.2122008253       11.1102806287        3.2749791737
 Si         1.7051369612        8.4139866019        4.9274302630
  O         0.4094149913       13.3262759531        2.1312873149
  O         1.9658523069        9.9562931817        4.5704422150
  O         0.7302317798        8.2702193234        6.2051857166
  O         2.1987830235       11.6143414841        6.5415672177
 Si         0.5055654035        7.7298215099        2.0352464420
  O         6.7806311444       12.3411980017        5.3977270324
  O         3.7810803939        9.8220927316        1.0598814883
  O         4.6571058991        9.2467734616        7.1379930178
 Si         5.8926520961       14.0123454359        0.1069086264
 Si        14.7159395400       14.7692294876        2.6860429001
 Si        12.8027053791       13.9668800784        7.3683555633
  O         8.5061680773       11.3620668052        7.0172089604
  O        11.8661771257       11.1277030912        5.9200837013
  O         9.6449588982        9.6504788631        1.8834255680
  O        10.6311149016        9.9498662168        4.1480003597
  O        10.0597731163        7.5181026645        3.6070867116
  O         8.5081253132       13.9785683022        6.3826771310
 Si         8.3247943265       12.4626832214        5.8601190384
 Si        12.1623473526       13.9933401587        4.3024841491
  O        11.7716098040       12.5086403676        3.7661993683
  O         9.4836503820       12.1181871414        4.8212708138
  O        12.1909263369       13.9827422934        5.8910294312
  O        11.6173899317        9.2557142329        0.2611466743
 Si        10.1170226595        9.8481366160        0.3683976815
  O         8.0178649065        9.1682220107        3.8422360597
 Si         9.5659076579        9.0411009840        3.3666907112
 Si        12.8370603495        8.2030936552        0.3129941735
  O        13.5766462286       14.4816945380        3.7598260311
  O        13.6687841924        8.1725799364        1.7198927584
 Si        10.9380116633       11.4272077451        4.6594635563
 Si        12.4709303296       10.9691247443        7.3861102487
 Si         2.5196303260        2.5976568039        8.8345140144
 Si         5.7308445881        6.4536985328        9.6764815856
  O         4.2670867023        2.3669239750       12.5070791697
 Si         3.6226980675        1.6256452036       11.2046047422
  O         3.8319276387        2.1157415121        9.6748816250
  O         5.3046191495        5.5539216138        8.4186980656
 Si         1.2797192655        1.5471090975       12.8178658765
  O         0.8196339110        6.0755640180       10.1435052273
  O         1.9560758802        3.8113799114        9.7205466983
  O         2.0357303096        1.7960047064       11.4287687853
 Si         1.0095838671        4.9248494606        9.0818808549
  O         1.3954056595        1.4724146733        8.5866453999
  O         2.4297185388        0.9927314677       13.8186289386
  O         4.5729032406        6.4576875221       10.7874288185
  O         5.7406953213        5.7285349979       13.4021334111
  O         3.3523653664        6.7062211085       13.0570693938
 Si         3.9367605260        1.5918247664       13.9142058234
 Si         4.4311094502        6.2484522086       14.1799233570
  O         0.5840379983        2.8765520385       13.4142986630
  O         1.8036155815        5.4850328480        7.7691990627
  O         4.9859576292        0.4152972814       14.1489674344
  O         7.1244132607        5.8858572964       10.2241684814
  O         4.0849650236        0.0938019975       11.4471220069
 Si         1.0159677970        0.3209700867        7.5340790488
  O         0.1617291775        0.4706731965       12.5113725644
  O         2.7985559991        3.1691305269        7.3468391196
 Si         7.2404320666        5.1462449406       13.5242658749
  O         7.6848843867        4.3333085722       12.1837906526
  O        13.2450449974        4.5663469437       13.4963848885
  O        14.3137390853        4.2489051075        8.7508958019
  O         8.2543073551        6.4121042512       13.7428217260
  O         7.9297519751        3.4215945727        9.5665155996
 Si         8.0810886793        4.6476147160       10.6314340725
 Si        11.3790538433        1.1830554052        9.2940421096
  O        12.1830801869        4.6643944243       10.3307992701
 Si        12.7307965883        4.0177145097        8.9596665974
 Si        11.0684746578        5.5922417228       11.0323007716
  O         9.6231419798        5.0855115637       10.5463407837
  O        11.0566191674        5.4738074615       12.6627489755
  O        12.4277629067        2.4209790664        9.0851127068
  O         9.9573047316        1.8848230401        8.9975152321
 Si         8.7056528923        2.6634537315        8.3383851195
 Si        11.9182329263        5.3292666361       14.0276818265
 Si        13.9673748573        3.3148777208       14.1999883106
  O        11.3704958180        7.1051417838       10.4743507429
  O        12.1012961979        4.8248828852        7.6811738569
  O         7.8471480570        1.5616641704        7.5203678841
  O        12.9934794231        2.0201296323       14.2306090542
  O        11.3690360199        0.3287264928       10.7067855402
  O        11.6983421631       -0.0018548078        8.2550181859
  O        12.1933422495        6.7849272166       14.6429185254
 Si         3.7206819446        7.4933300229       11.6836072134
  O         1.7936188644       13.7509534081        8.0221757803
  O         2.4123569033        8.0086970060       10.8728271278
 Si         0.9352023833        7.6616633676       10.2741149604
 Si         2.7008621242       12.4824725232        7.7766479887
  O         5.3089613507       14.4858069134        9.3036023615
  O         6.6965964135       10.2212260425        8.5853289104
  O         5.8824713951        7.9544563865        9.1552256847
  O         1.8743653121       10.4706910994       13.9790441819
 Si         5.0651396068       13.7784346199       10.7214158104
  O         4.6640591786        8.7542365651       12.1026345596
  O         2.4294594069       11.6008400445        9.0715926366
 Si         3.3532873928       11.1492465177       10.2830346923
 Si         5.3425173565        9.3635080571        8.6152925549
  O         4.2628474681        9.9641125443        9.6582252101
 Si         6.0175320846        9.4271674386       12.6750087330
  O         2.3719356357       10.8908932980       11.5355453679
 Si         1.2264922632       11.1471972228       12.6601050160
  O         6.3050635763       10.8789533780       12.0254726627
  O         4.3373150649       12.3599649407       10.6354245581
  O         6.4713583694       13.4803358875       11.4569168920
 Si         6.8396565737       12.3219725378       12.5336711798
 Si         5.5761904924       13.7271443104        7.9176623772
  O         6.7880115571       12.7589747132        8.3386889134
  O         6.0597223046       12.7412903790       13.8796704931
  O         0.7323134443       12.6784130483       12.9256662555
  O         5.8918896484        9.6654654733       14.2578625229
  O         0.5730207001        8.3400358913        8.8404488495
  O         4.2453524378       12.9079844395        7.5241762216
  O         7.2546930633        8.4279599256       12.4201329138
  O        14.1571495454       14.8055189929        7.5196734523
  O        14.5553873662        8.0181820077       11.3725113256
  O        14.5624938454       10.4525965015       12.1959942668
 Si         8.5701193977        7.9096055269       13.1940353418
  O         8.4172263625       12.2744819855       12.8359054542
 Si         7.6922931532       11.4432424003        8.3992432003
 Si        11.6551447161       13.5229917368       11.2542024990
 Si        10.9512457981        8.4671310321       11.2445749227
  O         9.8121330443        7.8610424919       12.1958408060
  O         8.9985830146        8.9881039987       14.3048973295
 Si         9.7524200250       12.6979682499       13.6493840683
  O        12.2627245429        9.0833990951       11.9516684809
 Si        10.4040198553       11.0894407774        9.6475184611
 Si        13.8178126587        9.0364282601       12.3513520577
  O        11.2097180277       12.3569189535       10.2274051474
  O        13.0852899157       12.4247639077        7.7773944523
 Si        14.2383388129       13.7601604983       12.8119847284
  O        10.1380841070       11.3902787515       14.5556495555
  O        10.3117461785        9.7192073995       10.4851446067
  O        11.2125188658       10.6359446712        8.3352630476
  O        13.2357525275       13.4014391974       11.6043787931
  O         8.8515896588       11.5300289390        9.4999870121
  O        10.8739486931       13.1559312990       12.6037090458
  O        13.9091360554        8.5906835183       13.8948831200
  O        13.3479902582       14.0534269906       14.1534855117
  O         9.5651449026       14.0718438316       14.4779318912
  O        13.5818174447        9.7894209812        7.4420440202
 Si        14.4263363653        8.3926096423        7.4555747306
