216
14.922 14.922 14.922
O      13.643687336999989      1.303668091900007     13.854818329899993
Si     14.335834706099988      0.793345192100012      0.326427770000000
Si     13.491355519899992      1.497123595000002     12.230629709000002
O      14.887233953499999      1.885629985499998      1.436569207599991
O       0.397003140199998      4.714027066299994     13.046912774399996
Si     14.801090764999989      1.971643228400014      3.077461476200008
O       2.703543971099991      5.114420308500008      2.329090725899989
O       0.703404140099987      0.072996192700006     14.620389988499996
O      13.317124965699984     14.807955537300003      1.256747414599998
Si     12.450275658099992      0.249811575300002      2.626912276199994
O       0.138763676699984      5.777764829700008      2.832676784100003
Si     14.242842709799991      4.529970671300000     11.823997993600003
O      13.416484497399987      1.223560339200008      3.481073728400000
O      13.471242735899988      3.117778460499995     12.031766944900010
Si      0.612360578199994      6.065596103300003     13.952725103099988
Si      1.926092056699978     13.994406998599995     14.449910797000003
O      12.168094756099995      0.731085926400011     11.706518744800004
O      13.383683594299995      5.937034284100001     11.780979519399995
Si      4.242018827599982     14.333910399499997      1.487143322799998
O       1.456623020199985      6.109443661800007      0.417969278500011
O       2.762824146299996     14.059779231100000      0.911109625900001
O      14.804559136699998      3.455002926300001      3.670456634700001
Si      1.506621759999981      6.165354246099997      2.045559075099987
Si      4.142774642999990      4.850731455500005      1.634290567099993
O       4.201385998899982      3.538494666499983      0.675347425199998
O       2.705401766499992     14.148899984100003     13.021115026500006
O       4.538283512599993      0.903802854700013      0.989895203600005
O      11.899914625400001     14.061817744200001      3.671684128600006
O      11.714206137699987      5.638052004500001      0.602788368399997
O       4.532147230499998     14.232995782599998      3.078928848800004
O       5.120957562499992      4.541711768700007      2.845613066100007
Si     10.151230235499995      5.511306474200000      1.058222301500000
Si      5.209997509099997      2.272829178700001      0.491004757599992
O       6.511108552599981      2.461954614900017      1.427359681999995
O       9.413307741999995      4.110634556099996      0.754788425299995
O       9.922445538899991      1.719852036000012     14.860358406599998
O       8.068830864899983      2.807404763500007     13.608359267100001
Si      9.430229493999988      3.175793468100014     14.350216489099994
Si      9.755519131700003      0.815469690500010      1.286831160099998
O       8.608636285699983      1.377492005400022      2.314942720299990
Si      6.772857150799982      2.405053234200013     12.752887635500000
O       5.611431483500004      2.128717501599988     13.852447689499993
Si      7.224109798199994      2.069728813299997      2.833250928799996
O      11.135579197600000      0.979733618099999      2.085592894899982
O      10.247093599199989      4.199799686700006     13.359483199500000
Si      9.682696854700001      5.279505564299991     12.268820856300000
O       9.997082392099989      5.682429771100005      2.639748819300002
O       6.437057442699975      3.698586847000019     11.867996029000004
O       7.022005155299990      1.133993934899999     11.769874950100004
O       9.580238128699996     14.160839011900000      0.831250929000001
O      10.830511452099996      6.186388879799998     11.612200619300005
O       4.606588740999992      6.185536206800002      0.847451737499996
O       7.253761014399981      3.446822208499999      3.744582797299996
O       6.430176864299976      0.966376311099997      3.740119301400000
O       8.595927774799984      6.355238246699999     12.869554430099996
O      14.070766037399990      6.355056766699996     14.518533821799997
O       2.362100158799985     11.744048488499995     11.784536481899998
O      14.064245448999982     11.567342608000009      3.325282967400002
Si     12.627489507299984      6.846765263199999      0.003153430600000
O       1.306232923799990      7.106291778600003     12.923862056700004
Si      1.277934061899987     10.510992993299993     12.013835137900003
Si      0.712439169299991     11.410933434200000      2.997374933799991
O       1.294984064199983     12.543431912799994     14.281091355600001
O       0.981064853799981     11.172416404299996      1.404523290199988
O       1.048405202099984     10.174849913399990     13.606831708100009
Si      1.627607632999998     11.082252317199979     14.835158532200003
O       3.205866560199981     10.672129666800004     14.844727637099993
O       1.878419628800001      7.623386182000004      2.681365850999986
Si     12.157267200499987      7.000641600499995     12.004487311500011
O      12.826638933799989      8.021253847200009      1.095386401299989
O      11.993613382399998      7.413453878700007     13.554948095700002
O      12.091684487199997     10.355683591599993      2.353837581399994
Si      1.935897795399982      7.513562818300008     11.472439830499997
Si      2.545338985399980     13.362024000899998     11.582661525799999
O       1.377541264199984     10.086564950199993      3.578890016300002
O       3.527127300499995      7.361100497099999     11.368214226700005
Si      4.509779595899987     10.072805281500006     14.071925434800008
O       1.629646469299987      9.096909363800007     11.286349092300004
Si     12.714867845099972     10.814272480700000      3.769156677300001
Si      1.577037579399987      8.560874225400003      3.972578022700002
O      10.740110050899981      9.269092891100007      0.424536810400007
O       6.888588403099984      7.027277587700010     14.773200731099998
O       9.418872447699989      6.759059358100002      0.350477504500014
O       5.771707003799972     10.999377808100007     14.434313183399988
Si     10.137519170099990      6.998084376700000      3.538110063200009
O       6.006035109199986      8.235962206200000     11.619957805900000
O       7.458496412599982     12.907791521699977      0.084369859099995
Si     10.201080451299996     12.223788194600003     11.996011786000008
O       6.433664140299974     11.162737444199996      1.995855116499988
O      10.828667085199987      8.181238490000007      2.751786718899995
O       4.437154431000000     10.082205262400013     12.442255100500009
O       8.359283227799988      9.428833116500002      1.737655923099994
O       4.954882254099990      6.353804601900000     13.200292737500005
Si      5.292447560899989      7.049504045800000     14.609224349199989
O       5.107030709499985     13.160078415599997      0.841118797599998
Si      9.228888650700000      9.780884574999996      0.413008483999999
Si      9.064670961199988     12.887148293999989     14.866641326200000
Si      8.358730636099985      7.290054683600003     14.187847782300006
O       4.763414756799994      8.574482542900006     14.608757483500005
O      11.002895702699993     10.794922252900010     12.038023995600000
Si      6.217453808499976     12.042898448000003      0.646707689800001
Si      5.028136679599980      6.925670286200005     11.701617769100000
Si      7.350294748299984     10.093370126200009      2.813905028299999
O       9.407395550099986     11.384810771299994      0.428764565500004
O       9.678898564500001     12.907981931099993     13.371284347800003
O       6.604170434699983      8.837467011600008      3.562648000400003
O       8.581233803999995      8.916464144900013     14.100537620700008
Si     11.670433982899988      8.978654836300000      1.675628509600001
O       0.615621076399987      1.637136930499991      6.483394253799982
Si     14.672032769100001      0.370530708699993      7.055183809499995
O       2.867372690199989      0.564666605600012      5.735039777000005
Si      1.781088917899994      1.655572166300011      5.328092592500009
O       2.624201880699991      3.035712559000006      5.236008156199998
O       3.121919324699986      5.214428195399997      6.489141021500000
O       0.062348574599989      0.062296238400011      8.627178358700013
Si      1.244389017199989      5.058755139399993      9.588309614699991
O      13.061661234799990      0.638165773600011      6.984239302999988
O       2.519343254499995      4.048999196899987      9.628999077100005
O       0.883074940900003      5.198462659200007      8.020222378000000
Si      3.574451776999989      2.926979722100019      9.133980909199993
Si     14.870221099999988     14.486544898500002     10.169468625899999
O       3.129875066199982      1.401965875700016      9.536693329700000
O       0.789780531699980      5.428733863699990      5.383776356899999
Si      1.631693873599984      5.788276925800000      6.712903193300008
O      13.207541762599982      5.109332944100006      4.816806075899994
Si      3.758553555499982      3.783188106200019      6.138203725399997
Si      4.009332687399991      0.018506049700003      9.458369982499988
O       0.041236142099983      4.363180599300009     10.389795122899997
Si      3.672329664499984     14.262152584799995      6.370400216499995
Si     14.701934474099989      4.962578148699996      4.201950161700003
O       3.866968267199983      2.962676426900002      7.535523183800003
O       3.861848181599980     14.319330861000005      7.970031108599999
Si     12.228535712199992      6.076199811600003      5.663139692900004
O      14.558884691799991      0.794816443900005     11.202263105099995
O       0.228215680199982     14.079941717799997      6.063545766300001
O       1.318669915199991     13.898386054399996     10.711930140799993
O       3.769820568299986     13.818041371600001     10.618037859299999
O       1.126582423099996      1.299359641399997      3.883983168700001
O      11.993502023699994     14.487881192599998      9.104329762399995
Si     11.681026656399984     14.861572263300003      7.534323409699999
Si      6.080284626499975      4.546760763300004      4.118859890600003
O      11.324509682599986      5.519830713999999      6.895674862399996
O       4.945998232099983      3.300611166699992      9.866855905499996
Si     11.395858297999991     14.747318515200005     10.617829737299996
O       5.187964932399983      4.030981357200006      5.398230760700002
Si      6.891652966299978      0.208430941600005     10.428225738299986
O       9.260247727999989      2.805854439000009      8.961747325100015
O      10.256416824399990      0.737025439000005      7.718434059199986
Si      8.863143914699988      4.236687056800005      9.568254472300001
Si      9.376691935099997      1.210574652400002      9.014416019700001
O       7.923382742999991      0.554333915500011      9.216038733300003
O       5.507790868299987      0.487639572700014      9.701359876100007
O      10.087955190099995      0.719077357100014     10.371811246000002
O       7.268027985199975      4.447663002099989      9.381782025200014
Si      6.040303634599989      4.308165869900002     10.438866607700000
O       9.834437350599996      5.366586353799998      8.966776080999999
O       5.110140661499993     14.311287662200003      5.621582792700002
Si      5.759978135199987     14.453755716400009      4.135757702200001
O       5.510193271499980      5.792073048099998     10.696691707800007
O       9.083975035999996      4.303225873300009     11.153758467299998
Si     10.083284419699984      6.255637802300011      7.648349355899992
O       6.590140554499992      6.088496648300000      4.322316165000003
O       8.527785343599986      6.280529595400001      7.059412893099985
O       1.393733151699987      6.523627907700003     10.296930482500002
O       2.706998538799996     12.992592082800000      6.062362015399994
O      13.896627674599982     13.169593503500009     10.216095217399999
O      13.149558654499996      7.284213525199998      6.157848018099997
O       1.867833760899984      7.337069488600012      7.063038777699998
O      14.229749935499983      9.423098908200007      6.962807341500004
O       1.838525597099992      9.858395284600004      7.388739206499995
Si      1.182979050299993     12.873805463100004      5.512891565300003
O      14.894359060499980     11.251564450600009      8.724510418499998
Si      0.390816157499998     10.541825655899999      7.352517970699996
Si      2.669723088299977      8.676608362900007      6.680045155300000
O       0.459811653099987     11.581532446399995      6.134004304599991
O       2.777232376699990      8.598139063599998      5.060751210300005
Si     13.881486787699986      8.597291799500011      5.627884804699994
Si     14.054456402599996     11.561188563300007     10.075362190799989
O      12.983476418200000      9.501903281300006      4.653421979500010
O      12.656146691999993     10.763639845300004     10.028841358699989
O       0.223413664999984      8.104129516700013      4.740430831899998
O       4.134430314999991      8.914686687400001      7.231277570900003
O       1.293620976299996     12.660205196900003      3.890996572800007
O      12.232658024799981      8.424015831800007     11.211699967300001
O      14.814494012999997     11.004078138099992     11.374086636799996
O      11.075313002299984      6.620725785899998      4.737885646400001
O       4.861964337399984      9.508505158700000      9.708456539800007
Si      5.362253064399996      9.026704192900011      8.236060999900005
O      11.408152029599988     13.736862623100007      6.380971927499994
O       8.747332933999987      7.517506559999998      4.074637047299996
O      10.338241126300003      9.583167985700005      9.793250940899984
Si     11.569703958499998      9.863203928899981     10.811526126400008
Si      7.203320537799974      7.596659221800012      4.462285248600001
O      10.564327966800006      7.830350558100012      7.806142523899991
O       9.170597565999996     10.323393798300000      7.556020720599996
O       6.939961274799979     13.575975100799999     10.872319595700002
O       7.593867505899994     11.999414171100003      8.893638222099991
O       8.109902118399983     11.001116041100005      3.915277643400005
O       7.105912854899983      8.081511913000000      5.997734311299983
Si      8.074873928399986     12.394965765900009      4.740535679300004
Si      5.455774519799986      9.722552392900004     11.212618950399996
Si      9.664730698900003      9.043377062799996      8.447843087399992
O       7.685123466199983     12.059320765100010      6.277513022099996
O       6.932954654799983     13.334801578099992      4.074472744400003
O       8.262452527199981      8.268150729200002      8.637624348600005
Si      7.456768890599989     12.095878609199991     10.495801489699989
O      11.744494907799986     11.741849219499999      4.651859064800002
Si      7.460999999999999      7.460999999999999      7.460999999999999
O       6.437803899199997     10.093464662800001      7.640499458000005
O       6.525426330499985     10.921674836100003     11.113971496300010
O       8.914349762899983     11.910319622300003     11.113229016900002
Si      7.715518164199977     11.095405445199999      7.568056998000008
O       6.019534647899980      7.516404286600007      8.214289807800002
Si     11.133561666699991     13.222196932099989      4.849364953699999
O       9.515619962299995     13.150739778499990      4.651381433800006
O      11.147225244799982     13.313438855599996     11.284411660200004
