216
14.846 14.846 14.846
 Si         1.2062798811        5.0041366507        3.8454982763
  O         3.8912792162        2.8846156639        4.1205591957
  O         1.5605550141        5.0358491857        2.2347394229
 Si         2.8098733703        5.8979605789        1.5876982116
  O         2.2842915388        6.0327285648        4.4419570759
  O         6.0961179924        4.1145817951        3.2239052833
 Si         5.6021338991        5.1553464506        2.0980639650
 Si         5.4975057568        3.0051675575        4.2552771870
  O         5.8465468924        3.4618215119        5.7775990931
 Si         2.5014060578        2.4263576337        4.7882578797
  O         1.4071824823        3.5406200154        4.4545876764
  O         6.0976883359        1.5560598026        3.8749711676
  O         2.7285518683        2.2391752652        6.3603493683
  O         4.1057565237        5.6050196738        2.4851204422
 Si         3.2438960896        6.4681117039        5.6411659988
  O         6.4320761234        6.5599657180        1.9774565346
  O         4.7786002048        6.3508045008        5.1155684926
  O         1.8892651351        1.0684859398        4.1990058364
  O         5.5288247057        4.3820385712        0.6641409662
 Si         6.2144028576        7.1107113894        5.1449705395
 Si         6.9953189799        3.3187544141        6.9162510454
 Si         0.7178691022        0.3589863939        3.3725022065
  O         2.8028957451        5.5967395349        6.9242988934
  O         2.3159617707        7.4155253720        1.6490594360
 Si         6.5167139215       -0.0005859830        3.7714486606
  O         3.3811791381        5.6920431649        0.0673226903
  O         7.4986693048        6.1755490329        4.9265241029
  O         7.7604235637        2.0015445773        6.4437224936
  O        14.6823824315        1.3239868345        2.3879596005
  O        14.6004664840        5.3714163743        4.4401732517
  O        11.4653450563        4.5497861754        0.7462838761
  O         7.9250256547        4.6186905093        6.9357794232
  O        11.1375046562        2.5560968236        5.2029049750
 Si        10.8828891921        3.9473396562        4.4229794485
 Si        11.0346766796        3.2150281655        1.4934743168
  O         9.5563540449        4.6210846420        4.9590217435
  O        10.4683811804        3.6302879696        2.9146252793
  O        12.0818406233        5.0281414547        4.5362188283
 Si        13.2900641424        5.7940434620        5.2971101377
 Si         8.6433425920        5.5382275196        5.8492484235
  O        12.3017437319        2.2945157619        1.8257307257
 Si        13.2450850842        1.0260364523        1.6730514453
 Si        11.1747637477        1.0648053035        5.8070478025
  O         9.7416005135        0.4174786614        6.1903949899
  O        13.1948962598        6.5927568772        0.8173568253
  O         9.5558188337        6.6080916627        6.6045514500
 Si         8.1430114585        0.4539224083        6.3667645251
  O        13.1017587721        5.3453816978        6.8492858082
  O         9.9023313978        2.4771231405        0.6460597336
  O        13.2779347739        0.7455737704        0.0917057352
  O        12.1300207030        1.0670964189        7.0949368307
  O         7.6795050066        1.1588846145        0.3314271587
  O        11.8681022943        0.0704362468        4.7716694206
  O        13.3600062885        7.4285918639        5.3557640418
  O         5.4400835895       14.9222056301        0.1642446942
  O         7.1680999267       14.5243050606        2.3263424495
 Si         6.9302555125       14.6634787860        0.7361844025
  O         3.2151566324       13.8572215141        0.4977836171
  O         6.2790846498        7.5938942752        6.6709569199
  O         1.4796338786       14.1084978376        2.4682399894
  O         0.9857110454       12.3692583470        6.4003540954
  O         6.4271922794        8.2379608752        3.9790701967
  O         2.9032949107        7.9834243716        6.0262798198
 Si         6.4097645246        8.1616967817        2.3393062487
 Si         2.5821527186       12.0596161840        6.2843609182
  O         3.1315750788        9.3950507492        3.8507005752
  O         5.2873243045       13.7931002159        3.8095923387
 Si         3.8471867368        9.9127603433        2.5013338174
  O         3.4655433424       12.5366526282        5.0315345616
 Si         1.8484882193        8.6500169881        0.7354816621
 Si         4.8414085044       12.2969324576        4.2006730234
  O         2.7134491020        9.8986964398        1.3195597246
  O         4.4709743826       11.3752177826        2.8978871367
 Si         2.2925651340        9.2159269838        5.2092223834
  O         5.0188575099        8.9136656788        1.9786631442
  O         2.6266851501       10.4503489560        6.1865697382
  O         6.0932927266       11.6366367272        5.0473241709
 Si         1.6911337999       13.8318880260        0.9051709417
  O         0.7349644681        8.9112931222        4.8679751537
  O         1.0992230334       12.3847902570        0.5775945811
  O         0.2360258942        8.6654314229        0.8225869400
 Si         7.1380652867       11.1762249715        6.2089108788
  O         6.3483381944       10.0807484266        7.0991586963
  O         7.4228950018       13.2879995258        0.0032508211
  O         7.6614939161       12.2816869611        7.2516152670
 Si        13.7117753416        8.0076171943        1.3699945239
  O         7.5021306948       14.5966046771        5.0408213360
  O        11.7257597054       10.9729935673        2.3774961264
 Si        12.3023546033       10.5671685688        0.9492001669
  O        12.7089725709       14.5159837687        2.3931945105
  O         7.5985466601        8.9182266739        1.4873261401
  O        10.4914953714        9.0003928372        6.5178822329
  O        10.8277770669       10.8229770900        4.6789667451
  O        14.4675237808       14.5183062404        4.3520330622
 Si        14.0582592137        8.5669251490        4.4185269316
  O        13.9432406835        7.9116343867        2.9544814780
 Si        10.1542350664       10.5123422819        6.0750823103
  O        13.6981518855       11.3029744498        0.7420268321
  O        12.7855201201       12.5313019761        4.2037136456
  O         8.5734133315       10.6343017060        5.7005314553
  O        12.5281622959        8.9870279717        0.9176220946
  O        13.2774542560        9.9759322892        4.3734959722
  O        10.8792954035       11.4632937576        7.1741078691
 Si        12.1898607883       11.0712362917        3.9096277689
 Si        12.9501621286       14.0959512412        3.9460472559
 Si         4.0086702964        2.7402446328       10.3240750534
 Si         6.6223052661        4.1366625799        9.8497041521
 Si         1.7870773881        5.3532003317        8.1678526782
 Si         2.5033098656        3.3774825484       12.6217042394
  O         6.5234218909        5.7310666298        9.5706932306
  O         5.2610928477        3.7031160115       10.5558233496
  O         2.8056904789        3.5515679132       11.0423812545
  O         1.2374098389        4.2004689951       13.1869193492
  O         2.4750797458        6.0996793148        9.4012187968
  O         3.6251204937        2.3264622671        8.8146655680
  O         5.8490474223        5.8548474879       13.4442117831
  O         3.8990129019        3.7967874114       13.3684248045
  O         1.9720960012        1.8268357708       12.6278215557
  O         4.3034215804        1.3544506363       11.0525703679
 Si         4.6893502416        4.9500001382       14.2331148532
 Si         0.7377896779        1.3434654800       11.6900186242
  O         1.3279052555        1.0777859325        8.1622459393
  O         1.5745707220        3.7520556145        8.2420989840
 Si         2.2923985851        2.3438992431        7.8979568880
 Si         7.1019302716        6.8822448761       13.0405690614
  O         6.5963727584        3.2747980806        8.4794800844
 Si         6.0064156654        7.1359440047       10.2025118033
  O         0.2467957219        6.5224674063       13.2852191540
  O         0.2831257039        5.9425493833        8.1699847865
  O         1.1461524153        0.2374594971       10.5937390977
  O         4.4548969162        7.1747581249       10.5586277162
  O         6.8406939744        7.4134282936       11.5439095184
  O         2.2146946926        7.2563653166       11.7138434719
 Si         0.5112925223        0.0673522482        9.1104855184
 Si         2.8971972957        7.3717508705       10.2723827743
 Si        14.6865124211        4.9942513141       13.0342436597
  O        14.9477288675        2.5384384608       10.8085277443
  O         7.8289929773        3.8039798138       10.8785453812
  O        14.4343077686        0.7368620774       12.6266296249
  O        13.9463112954        4.7219652798       11.6209773551
  O         8.4969299757        2.5646687399       13.2070157821
 Si        13.6237538788        3.4479272708       10.6735520791
 Si         9.0020638799        3.2521405623       11.8382317850
  O        12.3801482806        2.5476511501       11.2105036948
  O        10.0668076362        4.3953370514       12.2167155383
  O         9.8124115475        2.1358732981       11.0505839734
 Si        11.2326308037        1.4098234241       10.9840470376
  O        13.4449032586        4.0344280393        9.1676383823
 Si        13.5950340902        5.4634009106        8.3883579336
  O        12.7818795394        6.5112654124        9.3232843732
 Si        10.1802913500        5.9637352439       12.5601111089
  O         8.6572105961        6.3513126929       13.0341637211
  O        11.3230341409        6.2433735908       13.6935520630
  O        10.7253061399        6.6795081945       11.2119627828
  O        13.5346778937        4.6243252261       14.0969255476
  O        11.2981340091        0.9034135305        9.4833849499
 Si         8.9999062634        1.6620576338       14.4535019728
  O         9.8169222161        0.3345484160       14.0316699885
  O        13.7919714265        0.4276605411        9.0088370940
 Si        12.3690046055        5.5472199457       14.7466224363
 Si        12.2993937495        0.2369747345        8.4527364402
  O        11.2182889053        0.0822699369       11.9541415583
 Si        11.5671879443        7.3482071100       10.0008194026
 Si         4.4858977167       14.6478141687       11.3256384638
  O         3.8715444982       14.4267584719       12.8026955278
  O         6.7005862253       10.7190586348       14.6591079970
 Si         1.1769457363        7.7447555211       12.8213644248
  O         6.0741990046       14.3343295844       11.3737773726
  O         6.1864988425        8.3382336089        9.1548535728
 Si         6.6151479759       12.1664128051       13.9817976580
  O         2.0681631069        8.4080674132       14.0016390106
  O         5.5502561130       12.9415034339        8.5709161117
  O         1.0825897997       10.8022662572        8.5035694406
  O         3.7790876994       13.7702324447       10.1561477542
 Si         4.0205099912       12.6692346960        8.9897360026
  O         3.5410124110       11.2199666938        9.5668191067
 Si         2.1473013518       10.3733482938        9.6575760794
  O         2.4888769727        8.7893179684        9.5801066951
  O         1.3943227051       10.7209974665       11.0482189212
 Si         4.3682895441       13.9681711472       14.2657773854
  O         0.5801773282       13.3556110903        8.7445887011
  O         5.0527187399       12.5317706106       14.0186485725
 Si         7.1247417068       13.2461602024        8.4026000797
 Si         6.7978491530        8.6765913518        7.7256408398
 Si         0.2845257855       12.0530050222        7.8406646985
  O         7.1776042162       12.2105093499       12.4483513558
  O         7.0983894632        8.1679654070       14.0080653126
  O         0.0979304593        8.7623289609       12.1957299333
  O         0.3338196365       11.0425139192       13.3689072583
  O         3.2157229180       12.7809193271        7.5923825507
 Si         0.1127149518       10.3489513397       11.9538443180
  O         0.9132006578       14.9228897851       14.8455743568
 Si         7.4103983575       13.4352687277       11.3880182317
  O        11.3704460670       10.9762587008       14.5934758749
  O         7.7469244615       12.9579608161        9.8745174413
 Si        14.3635993681       14.8445534322       14.0372772905
 Si        14.6797606029       11.9838394727       14.5408940200
  O        10.8905807041       10.4744787549       12.0473920177
 Si         9.7597486472        7.9391866436        7.4665907136
  O         8.3881329814        8.6452099122        7.9083446885
  O        10.5451737447        7.5962014102        8.8002414331
 Si        10.2763458550       11.0349271241       13.4427172971
  O         7.5754054509       14.6754243847        7.7633703112
 Si        12.0096896440       11.9489369506        8.2177430387
  O        12.1323075058        8.7495017594       10.5464837731
  O        10.0631662240       12.6373011217       13.1890454431
  O        13.5553005345       11.6965289133        7.7440970634
 Si         9.9845367628       14.2073038849       12.7647133252
 Si        12.0466209594       10.3095646557       10.9156898814
 Si         7.6983730614        9.4594693865       14.7650426540
  O         9.0633727059       10.0654264043       14.0276120411
  O        14.0108197871       13.2849087688       13.8562500690
  O        11.8798565019       13.5398704332        8.3272040639
  O         8.6449405719       14.3400116751       11.8717551754
  O        11.7069270436       11.2191663133        9.6278753630
  O        13.5217322840       10.7988647740       11.3819327800
