216
14.786 14.786 14.786
 Si         4.9299069229        3.3032803269        3.5519186562
 Si         1.5159988463        1.2186701761        6.5759415816
  O         3.0254332764        1.3910676278        6.0026702751
  O         5.0104781950        2.7967226521        5.0989502595
 Si         4.4830583501        6.3829200299        4.0537549079
  O         4.9226426674        4.9315962454        3.4499599693
 Si         2.6602725973        1.7605872871        1.9949708464
  O         6.2372217175        2.7940200567        2.7110177367
 Si         4.5083770389        1.9474437433        6.3890476516
  O         2.9743401186        6.2381339796        4.6101176388
  O         3.5372231762        2.7105338523        2.9573637427
  O         1.0648990185        1.9618226547        2.1292555706
  O         5.5874169078        6.6606961495        5.2483390743
  O         3.1203169568        2.1287616016        0.4996143727
 Si         7.0620972031        6.2218304651        5.7886316224
 Si         1.4859578477        6.6283661740        4.1237519760
  O         1.4002111008        6.5822472746        2.4890982844
  O         5.5982636909        0.8143889656        6.7397520716
  O         0.5070178860        5.5152369669        4.7571651000
  O         0.4832308623        2.1429424742        5.7349690051
 Si         0.3433708367        6.8986240256        1.2865433017
  O         2.9657204743        0.1972664958        2.3030466906
  O         6.4889384768        2.0516871412        0.1662613744
 Si         7.2876404787        2.3815830811        1.5292593191
  O         7.1365772053        4.6616748113        6.2380926289
  O         7.7189907349        6.9044727601        7.0865679196
  O         7.2893377414        6.0875632550        1.3999752184
 Si        11.9864345601        0.9941131256        7.1445582528
  O        14.3677879832        5.5648129324        0.8130913742
  O         8.1286701884        1.0735576783        2.0488966122
  O        13.8058675964        3.0566703460        0.8980668763
  O         8.1262257385        6.4790685150        4.5866059095
 Si        14.2355359487        1.9434227378        1.9936280510
  O        13.5672644289        0.5703682644        1.4074698510
  O        13.7216293963        2.2130952108        3.5048830360
  O        13.3156562387        4.0310406873        5.3393177150
 Si        13.9097439534        5.5097102523        5.5828453637
 Si        13.8003263585        2.5020317519        5.0975451309
  O         8.2261774690        2.3251252460        6.3302270442
  O        13.0686729389        6.7987895262        5.0246633243
  O         9.2797458488        5.0065563319        2.7004728519
 Si         8.6113086433        5.1546065184        1.2541217111
 Si         9.4119726237        5.5734522973        4.1827225850
  O         9.5348789842        4.4340636566        5.3366925579
  O         8.2135448874        3.6101695368        0.9884375461
 Si         8.9907564856        0.9397686809        6.0399538060
  O        12.7326767890        1.5632284156        5.8364807169
 Si         8.5379694186        3.8838271982        6.5040006933
  O        10.7571207018        6.4160522141        4.0189754717
  O         9.0575415143        0.7606153047        4.4488965004
  O        10.3982362006        0.9840363749        6.8200729362
  O        14.1389010612        5.6639712563        7.1792477309
 Si         6.8572952599        7.3973168840        0.5498787112
  O         1.0656278819       14.4529187100        6.6455695531
  O         4.2837261527        7.6392750125        3.0040251034
  O         5.4251554239        8.0453948090        0.8179984750
  O         1.0650505769        8.0591838618        4.7713391869
  O         4.2642052299       11.0871800222        5.8378084578
 Si         4.3388916237       11.7902294977        1.8672385009
 Si         2.8104737529       11.1058287859        6.5452456230
 Si         2.3193912595       13.6406696356        2.8983083370
  O         3.4379822346       12.4874706230        3.0254531539
 Si         0.8566579760       13.3297523154        5.5324061885
 Si         4.2263670221        8.6289447683        1.6963324955
 Si         5.7919970885       11.6065264717        5.9567935629
  O         1.6557858874       11.9811368671        5.8322448139
  O         1.1444816837       13.0611971981        1.9876241882
  O         5.8290045996       12.3245504129        2.0578866455
  O         6.4981192549       11.4229091675        4.5120755930
  O         4.3570067986       10.1869487144        2.1298714007
 Si         0.9251955318        8.7105454070        6.2568465366
  O         1.5625958738       13.9904178223        4.2564660249
  O         5.7566433219       13.1618063330        6.3224567455
  O         2.2134354637        9.6196345162        6.5597144719
 Si         7.0094041747       12.0743599290        3.1147854565
  O         3.8567471565       12.3192247340        0.4137703999
  O         2.9721278831        8.7030868253        0.6667868398
 Si         0.3231593234       11.9581854849        1.2084267262
 Si         6.5320728392       14.3385274499        7.0818796126
  O         6.6490331442       10.9114868227        7.1409015627
  O         1.2482859896       11.4099122626        0.0677141202
  O         0.9057894790        7.5607149606       -0.0819223718
  O        10.9280966005        7.3182821625        6.3900853049
  O        13.1679497140        9.2803628337       -0.0111458692
  O         8.0475964271       14.5400870389        6.5709411086
  O        10.7550576080       11.4939617977        3.5399279455
 Si        11.5734813141        7.4225998829        4.9354192015
  O        14.6970485488       10.5904650314        1.9485341371
 Si         8.6773550293       14.7539911299        3.1085129571
  O         7.9607000432       10.9952432521        2.3854257878
 Si        11.1474496466       13.0641117437        3.4810091076
 Si         8.6004382148        9.9425126187        1.3407427208
 Si        13.1141864527       10.3513818144        7.1361615865
  O         7.6346042552       13.5444913793        3.3715691742
  O        13.8989838877       12.7990950734        0.5732967136
  O        14.1321728989        7.9658671363        1.9710559257
  O        12.3983960340        9.8673309625        2.3831278228
  O        14.2896168769        9.5295497932        6.3480071346
  O        12.5288613970       13.3078702729        2.6926896958
 Si        12.5748917267       13.0852370567        6.0477006083
  O         7.8862940263        8.5641405092        0.9203771414
  O        11.4230556359       13.5448668165        4.9994243367
  O        12.3042203053       11.4952197631        6.3171393784
  O        12.4792741114       14.2061762003        7.2355427073
 Si        11.0464295220        9.9480686418        3.1780206342
  O        14.0644563865       13.0721443822        5.4030988932
 Si        12.9152790129       13.8931807308        1.2432143819
 Si        13.6390544054        9.4263026244        1.5416406161
  O        11.6563998250       13.7254510537        0.2467247200
  O        10.0360722910       13.9586115442        2.7139737452
  O         9.9250288569        9.4464605033        2.1319549739
  O        11.3301959362        8.9499933933        4.4349905463
 Si         6.2167795088        5.7287560095       12.8471926033
  O         2.2235174902        2.0456632697       12.8067615208
 Si         2.3141785443        5.0328042743       10.1947683221
  O         1.3012948998        5.3514407985        8.9572387989
  O         3.5242267258        4.0452723787        9.7855836050
  O         2.8762679646        6.4905848357       10.6147399079
 Si         1.1459503898        3.1952582188       12.5450838120
  O         5.4960071157        2.2270571131       10.1841924749
  O         5.8290397325        4.3498053729       13.6350942768
 Si         6.0349377470        2.7188068100       13.5521615439
 Si         4.1381337959        2.5984522364        9.4116047109
  O         3.1866442526        1.3944015366        9.9417600251
  O         1.5551496404        4.2744623693       11.4180069932
 Si         3.2873952661        1.4465019187       13.8402944974
  O         5.0045095156        6.4079587882       12.0582755558
 Si         6.9712129608        2.0425408070       10.7738260108
  O         0.9017935284        3.9386075514       13.9649240181
  O         4.6919640765        1.8953780705       13.2187100699
  O         1.4852229486        1.4782287247        8.1601764994
  O         0.5781509281        0.5802370798       10.3600201047
  O         7.0554057035        2.4560772706       12.3301223339
 Si         1.8961756043        0.5619819878        9.4513394765
  O         6.8207970142        6.8849269189       13.8078096161
 Si         0.3098929189        6.4272060171        8.2465535486
  O         4.3502269393        2.7128200845        7.8057914707
  O        -0.1675408108        2.3723300543       12.0776209943
  O         7.3176551767        5.3333947385       11.7500410873
 Si         3.7514897365        7.3366808906       11.6786682157
  O         7.5637048190        0.5416840787       10.6695638718
  O         7.8298807296        3.0340127368        9.8572726866
 Si        14.2169606307        0.9562809823       11.4227051902
  O        11.1818693735        5.4982887212       12.9268753914
 Si        10.2328708775        6.6208234102       13.6000954130
 Si         9.2700073437        3.6272390122        9.5246207830
  O         9.5948468103        4.8799815812       10.5096318602
 Si         8.6154446818        6.0317858457       11.1121444051
 Si        11.9426432079        2.3266887118       10.0143296006
  O        12.9710881136        6.0037070128       11.1677642193
 Si        12.3987911636        4.8158851294       12.1097583126
  O        12.2404690193        3.6177071867       11.0034506764
  O        10.3413162283        2.4609874723        9.8535058868
  O         9.2750052513        6.9131037426       12.3090275786
  O        12.3268281256        1.9538453835        8.4351162627
  O        13.3009987088        4.3659650227       13.3795502601
  O        12.7379384384        1.1422109647       10.7746773823
  O         9.2070124812        4.1101667416        7.9706231057
 Si        12.7293725045        7.0533927704        9.9766365724
  O        11.7520880676        6.7310502024        8.7149348990
  O        14.2126484711        7.2264723693        9.3543570557
  O         8.1341130108        6.8908815812        9.8466392424
 Si        14.2613310093        4.2431883578       14.6732107079
  O         9.5246692992        5.8405506545       14.8659006616
  O         3.0440837720       14.6443705384       14.0462032194
  O         2.9521600587        7.4808509790       13.0681220557
  O         1.7224530570        9.6941771111       13.1512249262
  O         2.5472366717       12.3102855296       12.9050123994
  O         2.3720233423       13.7826981138        9.3722540968
  O         3.3740505601       11.4135122428       10.5275991174
 Si         4.5633197790       10.3428077108       10.7793290832
  O         4.1114255556        8.8060644873       11.0786601540
  O         5.4766330965       10.5109226282        9.4670638297
  O         5.4122697216       10.8480492562       12.0757522141
  O         4.9177334728       13.3141705767       12.9758904757
 Si         6.0040415475       12.3337153791       12.3506502950
 Si         2.4334548849       12.1513556838        9.4412655756
 Si         1.3671435705       11.2798348511       13.2814295053
  O         0.9870194376       11.5118430555        9.7797469622
  O         6.4926370387       12.9052917010       10.9384783875
 Si         3.5811030673       13.1424264779       13.8276323135
 Si         2.1409807539        8.4058905842       14.0903573879
  O         3.0212593987       11.6709404596        8.0273530820
 Si         6.8140429437       10.2971474437        8.6254935726
  O         6.7434059173       13.9581339390        8.6376571384
  O         7.1575937456       12.3179152485       13.4680972765
  O         6.9749999487        8.7228442596        8.5417359760
  O         0.0229707064       11.8253544684       12.5729968256
  O         1.0650798069        7.5587831707        7.3861294294
  O         8.7220211751       10.6730304339       14.6921943230
 Si         7.4849216807       13.8355809906       10.0744928977
 Si        13.7374919678       12.9674097027       12.1282961669
  O         8.9456477760       13.0619182438       10.1866110311
 Si        14.1703411981       11.5424654290        9.7532808626
 Si        11.3068203051       12.5151303970       14.0112004486
 Si        11.7399519674        9.4953202252       14.0348003829
  O        14.1299408753       14.5012826692       12.4781105538
  O        12.3084739029       12.5845125370       12.7453058958
  O        12.0778201704        9.2713933063        7.7856438050
  O         9.7805625004       12.7931072050       13.5576406926
  O        11.3294268287       10.9919474871       14.6284313350
  O        10.7012568082       10.8318358535       10.2716826630
  O        11.9125757837        8.3422475487       10.5111659724
 Si         8.6226402881       11.6736560490       13.4417530181
  O        13.3918519793       10.3573822739       10.5124258189
  O        13.8028324382       11.3360059334        8.2143564044
  O        13.6500594092       12.8835218559       10.5033969033
 Si        11.1102640651        7.9455232720        7.8406255783
  O        10.8639449669        8.0692234844       14.1236702975
  O         8.1400544526       10.8391130086        9.3665421435
  O         8.7876829728       11.0059694688       11.9661704838
 Si         8.1450092281        7.6600240627        8.4373420095
 Si        11.9021995818        9.8984681034       10.9079901484
 Si         9.1808997311       11.4432900229       10.4414567653
  O         9.6171624437        8.3119229535        8.3060594057
  O        11.8216528401        9.8552547490       12.4919626116
