216
14.832 14.832 14.832
  O         2.2958597929        2.9488911284        3.4669946215
  O         2.4026962306        5.3616269364        2.6301673480
 Si         1.0395798430        5.4450772925        1.7565696664
 Si         5.9593546211        4.9358823272        4.2529362658
 Si         2.9197576986        4.3991340665        3.8302336075
  O         2.3891933814        4.9449443704        5.2746512797
 Si         1.2039392951        1.7739623019        3.6877663685
  O         4.5179209747        4.2831420490        3.9504002835
  O         6.1816416376        5.9355794095        2.9771478235
  O         1.7385856930        0.7414718568        4.7829758005
  O         0.9768235978        0.8444143066        2.4122521337
 Si         2.6478448497        1.1476954081        6.0337959872
 Si         1.7313417793        4.1159819735        6.5088049369
  O         4.1830786471        1.0587921759        5.6001405737
 Si         5.5088856525        0.7141686767        6.4437782750
 Si         1.4707738991        0.6880282866        0.8966257792
  O         6.0075352720        5.7811485139        5.6035875729
  O         6.7612977597        1.3089320737        5.6218184211
  O         2.3859174456        2.6661712256        6.4251854118
  O         0.9912434627        6.7495543151        0.8229609911
 Si         6.7631273334        6.7292988927        6.6329778628
  O         6.2728470468        6.8391408708        0.4778484746
  O         0.8986317312        4.1872613025        0.7427156927
  O         7.0094530495        3.7855821177        4.6884106459
 Si         6.1578148445        7.2518155946        2.0232971704
  O         0.1626663451        4.1181016147        6.2692176834
  O         0.4916232640        1.6509036921        0.0793036052
  O         5.4395460910        0.3263460249        0.8234023868
  O         2.1575391082        0.2481885374        7.2585784973
  O         2.9971150707        1.1569960725        0.7898872670
  O         5.5215207492        7.6642607756        7.1005128765
  O         7.2636647313        0.2353474244        2.7928995480
  O        14.6677999528        2.4686635386        4.2008407651
  O        14.6567871586        5.5113810199        2.8079100146
 Si         7.8105347374        2.4659240148        5.1812701956
  O         8.5825996772        2.1501370934        3.8004519494
  O         8.8993434583        2.5517407031        6.4274544131
  O        13.1824014360        2.3007953652        6.3475454163
 Si        13.9404036546        3.3327208258        5.3653501827
  O        13.4764344791        3.2182813656        1.3301690169
 Si        13.5389953245        5.8874856473        3.9013702351
  O        11.9400150179        1.7371062239        2.9625383563
 Si        11.9661987415        2.9231619844        1.8404667220
  O        13.0937670388        4.5291763966        4.6879174688
 Si        11.0948631544        5.8448035175        2.1379592568
  O        11.1300200876        4.2165046957        2.3919067305
  O        12.2254440998        6.4374323155        3.1317355643
  O         9.2297286475        1.1517053253        1.3035300005
 Si         8.7397804558        0.8905477644        2.8237074176
 Si        12.9994043037        0.6825073199        6.4412015408
  O        11.2919954017        2.3871936481        0.4891547308
  O        11.3710742106        5.9300684529        0.5693867361
 Si        11.5014608922        0.3704868351        3.7211784077
  O         9.8062137172        6.8380204026        2.3146329781
  O        11.9670271772        0.3971257041        5.2498143312
  O         9.9210736167        0.0682933006        3.5524785667
  O        14.1729370234        7.0167472606        4.8651612890
 Si        14.6467504959        3.1029758715        0.2089109822
 Si        10.3810817600        1.1163535245        0.1500557933
  O         4.5290947237       10.8124754458        0.9723742188
  O         5.7679937388       12.9417766536        2.3010244428
 Si         4.8240160081       12.5918877526        6.0831588067
 Si         6.4751332040       14.2421523200        1.6534879459
  O         4.8578277811        8.2363941671        2.1385815186
  O         3.2069312383       12.6065196280        5.8469164454
  O         2.6241996285        9.7126430470        2.1444588481
 Si         4.2503972135        9.7514842295        2.1408996306
  O         5.1056409883       10.4769939601        3.3084134167
 Si         6.0976202918       11.7616488443        3.3730926626
  O         5.7599415072       12.3752466830        4.8015136928
 Si         1.7643184088       11.9488073209        6.2837130380
 Si         1.1249154294       10.2417248841        1.7621039652
  O         0.5642079401       12.0363891989        5.1911490700
  O         5.4363859386       13.9576352332        6.6873635413
  O         1.0643315373       11.5457107948        0.8234038606
  O         2.0460766810       10.3698402560        6.5159383558
  O         0.4169275048       10.6296140414        3.1171597191
  O         5.1112139797       11.3670642776        7.0853801178
  O         0.3253203383        8.3168497872        6.9970873349
  O         0.1657457192        9.1419112167        1.0778891071
  O         1.3980435028       14.0251730403        0.3328177681
  O         1.1441594635       12.7811646920        7.5589313076
  O         7.6471827988       13.7548770242        0.6617762067
 Si         0.0239252780        7.8478661436        0.1492047240
  O         7.3418286680        9.8792787994        6.7527970549
  O        13.7536424726       13.3280260583        0.4045752187
  O        14.0897234034        9.7183530350        5.1916943571
 Si        11.7629450459       12.3064333889        3.0933398272
  O        11.2869235126       14.5746256113        0.2459064469
  O         9.0014450981        9.8161962152        4.8287762960
  O        14.4387065192       14.7599872897        6.5148172975
  O         9.1540156805        8.3964137366        0.2076718288
 Si        14.3976141011       11.0496623751        4.3762107416
  O        11.7063992597       12.1144664690        1.4895389367
 Si        11.3634319026        8.4906684511        7.4682329960
  O         9.8696203236        8.8100675425        6.9976988833
  O        12.9468960465       11.6177895149        3.9458034839
 Si         9.0367934080        8.1949633232        1.8066606607
  O         7.5075260652        8.0821836298        2.3091967493
  O         7.8981656026        7.5724862433        5.8544534677
  O        12.1786160050       13.8759767438        3.1359340672
  O         9.5684711653        9.6122222176        2.3817802081
  O        12.4463197522        8.1470139541        6.3451756543
  O        10.3122675516       11.7900775108        3.6276973261
 Si        13.9816720430        8.2792988754        5.8635274294
 Si        12.1388637941       13.1526352146        0.3140204663
 Si         9.1209894467       10.6908539881        3.4989466312
  O         7.6684674662       11.3707599409        3.2125139040
 Si         8.5422733587        9.0289141426        6.1206559177
 Si         2.1398092212        4.9297808744       11.7052552298
 Si         4.5434883826        3.7548289014       13.2600283015
  O         2.8912197813        5.2568314325       10.3220787406
  O         3.0597932914        4.0363684329       12.6910364970
 Si         3.2590130723        4.6286599018        8.9044491938
 Si         5.4932804762        2.6039534487        8.9139107174
  O         1.7360572562        6.3726561264       12.2799935795
  O         6.2691908159        2.0528425943       10.2267297774
  O         5.6067091214        3.8749799321       12.0380183857
  O         4.0290908060        3.2280916803        9.1501933772
 Si         5.8333661035        6.2420376814       13.9076954746
  O         6.4144721146        3.7742937188        8.3061113542
  O         0.8285045020        4.0588622016       11.4490088644
  O         4.1282613168        5.6287493712        7.9847918343
  O         4.9447192262        4.9455997779       14.2644306634
  O         7.0766453579        5.8405673844       12.9480032014
  O         4.6945352870        2.3805174905       14.0779713962
  O         1.9007635216        4.5355950069        8.0460106490
 Si         7.0930915701        4.5365955835       11.9870431056
  O         5.3581186815        1.3939557236        7.8892404605
 Si         4.2107328938        7.2397027289        7.9421027918
 Si         4.2951468078        0.9474256113       14.6972204715
  O         0.3175372669        0.0983401650        9.0694780372
  O         7.4268013578        4.9413021778       10.4548340113
  O         7.4957405453        6.0188131293        7.9115290911
  O         4.9370220670        7.2222624798       13.0065609011
  O        14.8323273804        1.6395004087       11.4402089545
 Si         7.6066487609        4.7091828857        8.8557983038
 Si         7.6405565186        1.1787994775       10.1593363443
  O        14.1760102810        3.3057775461       13.5123348387
 Si        14.4348385575        3.1440262994       11.9181581325
  O         8.1574962615        3.5457239710       12.6939006700
  O        10.6416424406        1.7902826289        8.6509914564
  O         8.1590743382        1.3196842261        8.6367691827
  O        13.0926627506        3.7196072327       11.2197728265
 Si         9.4125344880        2.5913309591       12.3515440980
  O        10.6258962398        3.6116640084       11.9615619151
  O         8.8290007666        1.7195251888       11.1103782668
  O        11.5438354862        5.8509038573       10.7103540977
 Si        11.8719824955        4.6454269658       11.7469493247
  O         9.7986953437        1.4934198388       13.5062121737
  O        12.3511168883        5.4319154562       13.0893061699
  O         8.9862827870        3.8703277477        8.6526547694
 Si        12.0461746988        6.6181229636       14.1320337345
 Si        11.6335644798        0.5573189035        9.1232297408
  O        12.8641858985        0.9008529271       10.1287402085
 Si         9.2299740623        2.3796131880        8.0340243663
 Si        14.3823402962        0.4066511846       10.4762891506
  O        12.2764059636        0.0874493482        7.7402200579
 Si        11.1188932207        7.2690736875       10.0825663343
  O        11.3645428014        7.2383314234        8.4894269101
  O         3.9623139080       14.8090435170       13.4523660165
  O         4.5223083125        7.5821317403        9.4824294294
  O         0.4929504004        8.2472576418       13.5219757012
 Si         1.5085592163        7.9619970111       12.3431288461
 Si         5.0724643635       11.1202780534       14.3487044788
  O         5.8409712937        9.7172916330        8.9109176929
  O         2.8665093650        8.7365375403       12.6931090532
 Si         4.4539811165        8.7037731804       12.6792566975
  O         5.1094091128        9.6457613338       13.7586991480
  O         4.9457692379        9.3163812650       11.2902420742
 Si         6.6819965614       13.3972924680       11.4729429647
  O         5.0731326476       13.4296348432       11.5182303437
  O         2.4480871473       13.3471009973       11.8665179738
  O         4.1190017011       12.1811243005       13.5989681718
 Si         3.8768085255       13.4405569016       12.6067044710
  O         1.5641069267        9.7331734388        8.9073847626
 Si         0.9326098965       12.7451258531       11.8167387769
 Si         5.6020759404        8.6208616012       10.0249619513
 Si         0.6430426823        9.9865324375       10.1975440771
  O         0.9880843976       11.3726540022       10.9562900836
  O         0.8396946296        8.6407926795       11.0571627717
  O         0.4804257132       12.3662361882       13.3114852554
  O         6.5935108378       11.6218625198       14.3472257118
  O         6.9739383966        7.9007006888       10.4676764041
 Si         6.3755982915       10.6584540579        7.7499704582
  O         7.2573283280       13.6929115039       12.9452798562
  O         7.2505642985       11.9515924378       11.0469515284
 Si         0.7547504754       14.3693663448        7.6201353287
  O         7.2566867625       14.4958061894       10.4654882488
 Si         1.6913675669        9.0875815194        7.4452862553
  O         2.8890142391        7.9936058141        7.4146762471
 Si         0.4162316483       12.7869883446       14.8585294605
  O        13.3489118897        7.3331146369       14.7551918048
 Si        10.3918554360       11.7471666831       13.2721392355
  O        11.0379462920        7.6614929298       13.4246182352
  O        14.6767766321       13.8465177201       11.2846939825
  O        13.9503467467       10.0507200412        9.7346105010
 Si         8.1467370799       11.4073550341        9.8218212457
  O         9.5442778170        7.4252291906       10.3762225222
  O        11.7896702039       12.2889528632       13.8373947169
 Si         7.6723598634       12.8011543522       14.2165819958
 Si        12.3648525190        9.9959086855        9.7483505151
  O        11.8730110006       11.4567940485       10.2311329750
  O        11.8609365515        9.8121545320        8.2381213354
 Si         9.7852676634        8.6768373429       13.5893602651
  O         7.3231047506       11.7049299975        8.4853665699
  O         8.5843136106        8.4868950945       12.5174207107
 Si        10.7308760129       12.5919647135       10.3529795850
  O        10.3870560797       10.1424687748       13.2682856931
  O        10.2153634273       12.5171554314       11.8719161588
  O         9.1453381289       12.1983967433       14.1736306343
  O         8.5710064240        9.8940381411       10.2153529267
  O        11.8614058459        8.6603881637       10.5626889458
  O        11.0367034943       14.0953924495        9.8854828735
 Si         8.4216668875        8.4363264140       10.9107698091
  O         9.4793457004       12.1923636208        9.4653956858
