216
15.001 15.001 15.001
  O         5.3991971338        4.6818924786        5.3833711612
  O         4.8574506133        5.3173441770        1.8775885643
  O         5.3953552251        2.7347247143        1.2510717065
 Si         5.9864807993        4.1619471372        1.7637783631
 Si         4.9268664707        1.1790211557        1.4394068889
  O         4.4671926008        2.2490639612        5.3074364216
 Si         4.5821131354        0.8168585446        4.5695112948
  O         4.4463180221        1.0166372394        2.9714075938
 Si         4.7182138354        3.4940465715        6.2825613525
  O         0.7943164479        1.0800235805        5.0942412769
  O         6.7059575685        3.9082855248        3.1999462981
 Si         6.8764706979        4.5386608960        4.6772552011
 Si         4.4006181757        6.8766397207        1.8476668809
  O         7.0398586732        4.7720453740        0.7030507796
  O         3.0717548246        6.8855870742        0.9338112842
  O         3.8331251658        0.7789473234        0.3164924997
  O         5.8093292327        3.1302568935        7.4227506755
  O         3.3540876057        3.9159836684        7.0359582177
  O         0.0818031626        6.8875199234        6.1629244672
 Si         0.4294856251        7.2358592578        4.6561545653
 Si         7.3639624869        3.5796173909        7.3069014911
  O        -0.0077354372        6.0187378905        3.6653539673
 Si         0.0408770669        5.7963873847        7.3096652364
  O         6.0123108627        0.0862478194        4.9179972455
  O         4.2887220586        7.3296666404        3.3941844235
  O         2.0206174696        7.3474076285        4.5315693897
  O         6.0913870848        0.0776339160        1.2488455161
  O         3.2794568721        0.0005493960        5.0758610308
  O         7.7248298926        3.5889769894        5.7072046838
  O         7.6456001645        5.9404698037        4.5290437956
  O        14.4478854302        4.4534609574        6.6415825171
  O        14.2244686194        6.1628041968        1.1712393256
  O        14.3699101657        3.7555168598        2.1753073495
  O        14.2284950214        1.2376316549        2.9486071281
 Si        14.2745105137        1.2400197684        4.5550257313
  O        13.6750595270        2.6828191698        4.9292902910
 Si        13.7993409284        2.2647341807        1.7711673468
 Si        14.0705574741        5.3263379731        2.5168126170
  O        12.1921971950        2.3515874917        1.6423681771
 Si        13.1483075502        3.7351102047        6.0145960657
  O         9.5319431671        2.0286515499        1.7224527564
  O        10.2389524387        6.2530129759        3.9809260664
 Si        11.3405175604        5.0816264184        3.9009871593
  O        12.5422074756        5.5490458099        2.9560077147
 Si        10.7546138649        3.0787310054        1.7451299916
  O        10.6322725690        3.8245830922        3.1793326036
  O        12.0348676537        4.6911556206        5.3174623732
 Si         8.9453309479        6.8710736080        4.7266824564
 Si         9.2086107313        0.5098099355        2.1278672161
  O        14.3612726734        1.5709006387        0.4002035874
  O         8.1470815431        0.3899844282        3.3531088739
  O         9.3796501832        6.8810048150        6.2628383270
  O        10.6222577485        4.0610163543        0.4770998081
  O        12.4168505912        2.9669608141        7.1944483088
  O        13.3455335173        0.0679815120        5.1591293892
  O         1.8802147016       15.1511902710        7.3488280594
 Si         1.7962897043       14.9728510829        5.7234548513
  O         4.1445835667        7.7323388141        6.1068889308
  O         5.3777507687        7.9737820519        1.1760627444
 Si         3.4890850847        7.9643387427        4.6376414943
 Si         6.6237877999       10.9744311345        6.9383236595
  O         1.1652607871       13.5185763167        5.3926944781
 Si         3.4337087510       11.0959744225        4.8068964372
  O         3.4279735450        9.5461649005        4.4460598498
  O         2.8949105201       11.3214438388        6.3319086970
 Si         0.9757336069       12.4549751989        4.1922143081
  O         2.4254479138       11.8737880584        3.8280185140
 Si         6.4721840947       11.5666146266        4.1019501838
  O         4.9070581590       11.6436420424        4.4543157697
  O         7.2113304971       11.1709162799        5.4668298542
  O         6.9611689373       13.0221812496        3.5998015658
 Si         6.7728378539        8.4679587021        0.5449825582
  O         6.9516855715       10.3776972975        3.1191682907
  O         5.4716663612        9.8558382520        6.9488772847
 Si         7.1524843381       14.3638183871        0.2711468770
  O         0.3436032295       13.1393601617        2.8978251160
 Si         5.0217696081        8.3469486694        7.3281054905
  O         7.0370592359       12.7281177901        0.3089521003
 Si         7.3876450858       14.3931532776        4.3760318008
  O         0.3994001607       11.3268379525        7.3519431572
  O         0.0062365767       11.2521706628        4.6052761662
  O         7.8854482870       10.4846987827        7.8047434933
 Si        13.0766151666       10.0630815380        1.8948258494
  O         8.6026769235       14.7545837559        0.8477032406
  O        11.6172581874        9.9988819199        1.1782700959
  O        11.0728283000       14.0629080717        6.2499405217
 Si         9.8899398669       13.1582114405        5.6092564555
  O        13.8344017547       11.4362443296        1.4869920962
  O        10.6261787223       14.8407538413        2.5062631909
 Si         8.2182308638        9.3492806766        2.9977321549
  O        13.4294100243       12.9710772494        6.7224994013
  O        14.6936390904        8.6616527530        4.4693536752
  O        13.9915858044        8.8255646219        1.4154558646
  O         8.4669319447       13.9757301910        5.5425470743
 Si         9.4726228097       10.6393370086        7.4776739842
 Si        13.9369092634       10.0644619683        4.7666211001
 Si        12.6558864916       14.3444217941        6.4333102248
  O        10.3875779443       12.8145572466        4.1265588651
 Si        11.1326290804       13.3489636147        2.8189990350
 Si        14.3631026079        7.5855382656        0.4544637079
 Si        14.0034509840       12.9475881496        2.0388577859
  O        13.2900317776       10.3866450833        6.2546658157
  O        12.8856708151       10.0910024830        3.5196052074
 Si        10.2522835498       10.8385611586        1.4470091665
  O         9.7610599217       11.7191482501        6.3239704892
 Si        13.8090364011       11.5343978410        7.3514819200
  O         8.5199058681        8.3519918617        4.2273105136
  O        10.0771648795        9.1492408369        7.2787738251
  O        12.7281119331       13.2897559055        2.9691465399
  O        14.1353628289       13.9870058572        0.8521156582
  O        10.7028123153       12.3631969699        1.6353391287
  O         9.5402200858       10.2296930650        2.7570214293
  O         7.8930263617        8.4393779344        1.7120547382
  O         9.1257816350       10.8653508211        0.3031225337
 Si         5.0687465883        5.7022140117       10.2627282310
  O         6.2529316435        2.5618999613       12.9620165659
 Si         2.4952343990        3.8165723756       13.5447857506
 Si         5.5190405575        3.9637103871       12.6163943784
  O         1.7758770333        3.6029420030       12.1160057947
  O         4.1351748565        5.5429702139        8.9235595360
  O         2.2752569794        3.8922171935        9.5853343349
  O         4.0859831414        3.9852021282       13.3529993812
  O         6.4881081087        6.3258342928        9.8433965975
  O         5.3089856892        4.2851738803       11.0312610581
  O         6.4130854114        5.1595168892       13.2045334676
 Si         1.4484481432        4.5000443030       10.8329318930
 Si         2.8389923263        4.7440873510        8.3286235123
  O         1.8756423231        6.0111845107       11.1751953306
 Si         2.6290839668        0.8678494089       14.2480426553
  O         2.1914778129        2.4281982963       14.2923678808
  O         4.3827354620        6.7122174689       11.3153806792
  O         1.9536872302        5.1509585474       14.2957002354
 Si         2.1904088338        6.7432139548       14.5927575755
  O         6.7249381348        0.7073868997       11.2596028213
  O         7.1337424780        7.2722205012       14.5246709980
 Si         2.8758582365        7.1773433779       11.6406745608
 Si         7.2780023296        6.5326281243        8.4578380279
 Si         7.1699341462        1.2501839096       12.7219583899
 Si         7.3623958392        5.6770285550       14.3938140103
  O         1.3668715275        0.0032923730       14.7637784604
  O         2.8056643767        7.4110621100       13.2379844843
  O         1.5496585535        5.6257607144        7.8850947345
  O         3.0359277763        0.3118489380       12.7429861639
  O         0.8670879394        7.5946011386       14.9120633579
  O         6.9544716389        0.0741978370       13.8180618379
  O         6.3261772923        7.4218882683        7.4983204323
  O         7.5719298910        5.0878071207        7.8153876725
  O        14.8963595718        4.5328736060       10.4597161104
  O        10.5291244848        1.5606011351        8.1983315143
  O        11.3303490096        1.4103585514       11.8769719893
 Si        12.1093676604        1.7372339748        8.1530731318
  O        11.4024994680        5.9284898065       13.8260018802
 Si        12.7462244853        1.8099210161       11.1711563266
  O        12.4132994086        5.3783947067       10.0797877725
 Si         9.2840684342        1.8559359263        9.1438564310
  O        13.5256003617        5.7968323326       12.3552829635
 Si        13.4560918866        4.7256636317       11.1550613093
  O        12.5880544765        2.1196230918        9.6127975673
  O         9.6048545946        2.7439396193       10.4668513712
 Si        10.0063372200        2.3638177525       12.0015527012
  O        13.1209974163        3.2695869513       11.7860916336
  O        10.3878305153        3.6775519869       12.8477207689
 Si        10.3338227227        4.7547828900       14.0547088137
  O         8.7505924877        1.6376569953       12.7240394064
 Si        12.5447723683        6.8147282885       13.1446716693
 Si        12.5764148177        6.6552976591        9.0702912248
  O        13.8340931609        0.6157055858       11.1920002561
  O         8.8319022194        0.4129047173        9.6937186813
  O         8.2036107989        2.5773413525        8.2092289730
  O        11.2643415213        6.8705100184        8.1303121260
  O        13.9798773337        6.3891899297        8.3471853345
  O         8.9027772756        5.4607506842       14.0566290400
  O         8.6913769842        7.2817409270        8.6778574382
 Si        14.7540280159        0.0746640402       14.8688644597
  O        12.8145293874        0.3822808450        7.6588247340
  O        13.3611165801        7.6520759593       14.2235005376
  O         2.7467918335       14.7884647983        9.9996036825
  O         4.2694896483       14.3803508155        7.8189698691
  O         6.6401568661       14.4414843460        8.9204837988
  O         2.2606354007       12.7833495497        8.4370432222
  O         3.9844601625       10.4700380898       10.6259914002
  O         2.2658518786       10.1694282190        8.6618838567
 Si         2.7625180253       14.3170643969        8.4365881814
  O         4.8588278336       12.6621331319        9.5918481670
  O         1.0085329028       13.9953438727       11.7179723827
  O         6.0112812308       11.6476299721       11.6383221942
 Si         2.5947389761       14.2598255351       11.5519822444
  O         3.5103375283       12.9007438415       11.7278819815
 Si         4.5655759819       11.9194534284       10.9614246056
 Si         3.2515432160        9.4020643879        9.6695061415
  O         2.4966197964        8.4380610301       10.7131774628
 Si         5.4775398914       13.4883905208        8.3840750058
  O         4.2313481554        8.5034190818        8.7379109573
 Si         1.9639424473       11.4037473200        7.6658579209
  O         6.7268303204        9.9933632334       14.9247377452
  O         6.0258306836       12.4134798632        7.3398219396
  O         7.8808590693       13.4243468727       11.0961480386
 Si         7.6019961558       11.9492040318       11.6833509831
  O        13.2769816354       11.5601574946        8.9052587277
 Si         9.8920185031        7.5699232277        7.6188937249
 Si         7.5018044026       14.7270301442       10.2414964535
  O        12.8149874666        8.0475942412        9.8324639287
  O        10.7152242457        9.5105450528       10.5526930513
 Si        12.9196990163       11.7471673511       10.5081414398
  O        10.1500576427       11.3246128724        8.7432645262
  O         8.6625851468       11.0371174627       10.8703983325
  O        11.3307640173       12.0361193383       10.7887835197
  O        13.7349145385       12.9414523090       11.2424148650
 Si        12.1766131735        8.9641082107       10.9779005872
  O         7.9769453443       11.7176694457       13.2085361133
  O        13.1352455795       10.2654764905       11.1777358668
 Si         7.6798442023       11.3246566416       14.7294704543
 Si        10.1676150271       11.0061299071       10.3053492643
  O        11.9437112083        7.9701881023       12.2069712830
  O        14.1420304681       14.6118276261       13.4433688581
 Si        14.4232473481       14.2690792379       11.8914046211
