216
14.86 14.86 14.86
 Si         4.1369192461        2.4571852988        4.9925599500
  O         2.2328107542        5.3663933719        3.8050705087
  O         5.1209864208        3.7185475519        4.8666111024
 Si         6.3916855779        4.1472936712        5.7705097484
  O         2.6168249608        2.9569147802        4.8038216293
  O         4.2942288014        1.3212491451        3.8746067179
 Si         1.7144155023        4.2882603982        4.8836743133
 Si         3.0603594979        6.6791760856        3.3892971626
  O         1.8976473252        4.8610171753        6.3760059984
  O         4.5422140472        6.2838427485        2.8069131435
  O         4.5380835969        1.8160205521        6.4309091698
  O         6.6938323789        5.6737574815        5.3721342697
  O         0.9987496418        3.8783800704        0.5842773500
 Si         5.8881306024        7.1929663203        2.5812458529
  O         7.0031901303        6.5181967111        1.6377723714
 Si         7.2606011874        7.1742858790        5.3125355550
  O         5.7043651498        0.5008599571        0.2531665240
  O         0.1631531617        3.8832747088        4.7042705859
  O         6.0348568502        4.2855942767        7.3443696626
  O         7.4487143974        2.5487156850        0.5873186325
  O         3.1302849248        0.0041205608        7.5127314992
  O         7.5143851333        2.9802488832        5.5358678188
  O        11.8070583889        2.0674682746        6.6918699499
 Si        14.3171020239        3.5924752867        1.0294567291
  O         9.9920810630        2.6460860976        1.3212686016
  O        14.1813181175        1.9778235402        0.8229890850
  O         8.0825934595        0.7273314440        3.9597214067
  O         8.0695662875        3.0765066474        3.0606952148
 Si         8.4288789112        2.2676566137        4.3874915082
 Si         8.5329847048        3.2497827739        1.5467410228
  O         8.8285556662        4.8020475373        1.3893754233
  O         9.9890323286        2.4706237557        4.7887361304
 Si        11.1369274147        3.1428157004        5.7150864747
  O        13.7888303668        4.0285811230        2.4846816302
 Si         8.5663100472        6.3637288835        1.3138321292
 Si        13.4640919246        0.6393571405        1.3901758411
 Si        13.6369935091        4.4113158462        4.0557841699
  O        12.3068823029        3.7994701378        4.7817023235
  O        13.6218322123        6.0247497482        4.2082257365
  O        11.9920249507        1.1398854392        1.8196986319
 Si        10.8044389041        1.4190512918        0.7547617007
  O        10.4003835851        4.1260521690        6.7746663186
  O         8.8412010146        6.9278937519        5.5336980426
  O        11.4618747483        7.0132778468        5.2088557830
  O         9.5012097375        7.2697276523        2.3066170128
  O        13.4490488385        4.4592966379       -0.0008447624
 Si        12.6975423821        7.3411099699        4.2244398982
  O         9.8343462798        0.1763238850        0.6634675543
  O         2.0583481329        7.5201457309        2.3915374895
 Si         3.6366782256       14.7305274868        3.6267484719
  O         2.0674300405       14.7814967066        3.2146418374
  O         6.6886713423        7.6835179592        3.8898249577
  O         3.3999719605        7.6915448981        4.6227458566
  O         5.1195105842       10.3164970122        0.0828749644
  O         4.5376912561       14.1231489721        2.4290273137
  O         5.3597930659        8.5038869351        1.8294475832
  O         3.6402606522       13.9410928600        5.0442493949
  O         1.6195587520       12.8842692446        6.4419313885
  O         0.9049633804       10.0718012924        1.4041963061
 Si         2.6031670357        9.0948970038        4.8037984570
  O         2.5706137355        9.8166730334        3.3321907835
  O         1.1515892335        8.5844873236        5.2847960541
 Si         2.1128556928        9.1054542447        1.9324347066
  O         3.2068467503       10.1424873875        5.8526949724
 Si         3.0915464633       13.5570712006        6.5231599644
 Si         0.5826427674       11.6078730333        0.9562463554
  O         0.9926584050       12.7101666854        2.0613640460
 Si         4.8204665020       14.1136886354        0.8276758252
 Si         6.1884322151       11.3000972854        0.7712082604
 Si         6.5914565534        9.9146920406        6.6890910317
  O         6.8527842401        8.3423370540        6.3636365248
 Si         0.7011518591       13.9436574686        3.0450776020
  O         6.5077953134       10.7369018908        5.2610798964
  O         3.0750759228        8.9930437405        0.6472207396
  O         6.2831964367       11.1384265529        2.3987529010
  O         5.6995619678       12.8069164370        0.4937254120
 Si         4.6580130363        8.8246541523        0.4202396309
  O         3.9738958160       12.3374021123        7.1126997728
 Si         7.0362653736       11.3610219208        3.8351584254
 Si         0.2480662405       12.4311211679        5.7263428707
 Si         3.7670879472       10.7350368047        7.2470518862
  O         0.1551292974       13.2994232440        4.3948782211
  O         5.2017324116       10.0662529783        7.4907222740
  O         3.3466611660       14.0309107383        0.1658165818
  O        14.3798735176       14.9323453654        2.5656153351
  O         7.1884652740       12.9716858666        4.0458522414
  O        14.9428165268       10.8652426500        5.3709862635
 Si        12.6741371129       12.7511193438        0.2214325297
  O        10.9889486791        8.2578535597        0.4197219379
 Si        10.1940291589        7.7120135778        5.9093674008
  O        11.3199300298       13.2933118999        6.6931472096
 Si        12.7076044000       13.4906678850        7.4069284615
  O        13.2119404285       14.2828637409        0.3333029730
 Si         9.9674671952       12.7360595202        6.0898646934
 Si         9.9160674423       10.2821722293        4.1527996891
  O        10.3993006790       11.5547658375        5.0385877774
  O         9.4047211575       13.8717816778        5.1215041850
 Si        10.8108233801        8.2334728185        2.0485411700
  O        10.6446263034        9.6708347532        2.8145820528
  O        14.2840636470        9.0812501533        7.2526014158
  O         9.1494688790       13.4544434746        2.4814547854
 Si         8.4390108817       14.0025228956        3.8530078409
  O         9.9819511149        9.1623804080        5.2871860101
  O         8.4534014928       10.6399457188        3.6214581070
  O        12.1343166350        7.5927906748        2.7267290415
 Si         9.7616586631       13.4806933858        0.9739475905
 Si        14.6386454465        9.3116380444        5.6926966621
  O        13.8755677263       12.7119097365        6.6817331062
  O        13.4613520177        8.6615903898        4.7828013428
  O        13.8288947831       11.7390054347        0.7566182600
  O        11.2215068236       12.7208612005        0.9779427495
  O         8.9218463675       12.5492124222        7.3366059070
 Si         1.8221061718        6.5213836946        9.4841462990
 Si         5.2805885079        2.4492757992       10.3694445451
  O         4.5402667423        1.6523078033        9.1635726285
  O         4.2976421391        3.1416871368       11.4889661554
 Si         1.6337431126        3.5279419806       13.9892418456
  O         6.2729045728        3.5397681275        9.7608695794
  O         4.8619839329        5.1289947145       13.2945057637
 Si         4.5019713375        3.5781333151       13.0683555661
  O         3.2223615179        3.3786970576       14.0264689634
  O         1.2425404880        4.6220376842       12.8801072715
  O         2.4737121095        5.1921169341        8.8408658550
  O         6.2770287374        1.4746764720       11.1460430207
  O         1.0700655537        2.1431630184       13.4523078374
  O         0.9904182761        6.1117180260       10.8133269416
  O         5.6717434184        2.6555709198       13.6233863871
 Si         5.1405816047        6.6671155151       12.9741500684
  O         6.5263121915        6.6094074349       12.1358956608
  O         0.8944434626        1.6471252038        9.5796517779
 Si         6.8436598075        4.5775349213        8.7070532490
 Si         6.6283492721        1.6408577954       14.3965601466
  O         0.3363114074        3.8041243217        8.2488973893
 Si         3.7065275799        1.5195777743        7.7811871445
 Si         6.8661027911        7.0226315567       10.6038011017
  O         6.5988620249        5.9986740194        9.3992133881
  O         2.6378137270        2.7253296563        7.8334108166
 Si         1.8578068618        4.1261592448        7.8059629177
 Si         1.1444355005        0.1980354845       10.2334446400
 Si         0.2559581213        0.8196151202       13.1386318944
 Si         0.2175343252        5.0172342066       11.7059452406
  O         0.5743621989        0.2366298041       11.7053710849
  O         4.0371427325        7.2724247685       11.9719499211
  O         0.7271286002        7.1854696272        8.4964054808
  O         3.0650196089        7.5308207065        9.6666505214
  O         7.6718044172        1.0672651721       13.2701385069
 Si        14.6728299607        2.8537226371        9.4377549340
  O        14.6195507177        3.7200355680       10.8139776424
 Si         7.7016702762        0.9315939291       11.6410030722
  O        11.5638521287        6.0132164649       13.9517432441
  O        13.7786308000        5.6270773786       12.4643682231
  O         8.9865828954        1.5754438561       10.8965717897
  O        10.4047377359        3.2736705822        9.4899649318
  O        11.4758749208        1.6438634869       11.4500333688
 Si        10.4383002768        1.8371037697       10.2335567662
 Si        12.1725084956        2.0387225121       12.8382860151
 Si        12.7279853208        4.9819333620       13.5218997322
  O        12.2146151821        3.6442547465       12.7925301500
 Si        10.0029148033        4.3292011984        8.3383809833
  O        10.8177129851        5.6199105687        8.7629022808
  O        10.9979368350        0.9135586248        8.9993947972
  O        13.2152995456        2.3151844877        9.0049842150
  O         8.4116593112        4.4576440527        8.4112527128
  O        13.5555253737        1.2388150283       13.0445070409
  O        11.3083617189        1.6544087562       14.1231729206
 Si        12.2651624281        1.3931974249        8.0692609776
 Si        10.4757701917        7.2020656255       14.1239305997
 Si        11.3053086234        7.1266708557        8.6894025578
  O        12.8887734352        7.1789282520        8.4115074489
  O        13.1270500054        0.1679806895        7.5153736470
  O         9.0117588748        6.7652178674       14.6721871917
  O         1.4905745429       12.0608899010       14.5299698177
  O         5.1147036215        7.6585745297       14.2578696218
  O         0.9018090321       14.5344490113       14.1136704337
  O         2.7213966888       14.6881286846       10.3893290538
  O         5.7747590886        8.1686229030       10.2365381062
 Si         4.1986961577        8.1642124808       10.6387989210
  O         2.8010696396       10.3354524687        8.4880098806
  O         2.8847765887       13.3676678920       12.6269690989
  O         5.1071185946       13.5375676044       11.0635615073
  O         3.0440024734       12.1340352900       10.3224373203
 Si         2.7548662078       10.5856600213       10.0936188145
  O         1.4078452019       10.0659839852       10.8136845073
 Si         3.4832278063       13.4460635597       11.1265113987
  O         3.8975311329        9.7283676509       10.8181975542
 Si         2.1575980163       13.4880806246       14.0678182969
 Si         6.6697499136       13.0670131308       11.0357273011
  O         6.9338387646       12.3004373484       12.4692443205
  O         0.2628738626       13.9538676475        9.4318567400
  O         7.0182447456       12.3763981450        9.5738135026
  O         7.5043120898       10.9866870257       14.7015429968
  O        10.4799621316        7.8457357498        7.4943687863
  O         7.7422410123       14.2683841332       11.1458321115
  O        10.9879352143        7.7626700890       10.1298804334
  O        10.2417279362        7.7611657372       12.6451546496
  O        13.4640135211       13.0402890009       11.3221614042
 Si        13.9683617159       12.8906782677        9.8013389958
  O        12.6346460105       12.9682764126        8.9163152751
  O        14.5315052419       11.4038405150        9.5724716287
  O        12.4542357419       12.2984388973       13.5551604043
  O        14.1209776816        8.8487415772        9.9133834590
  O         8.4489622746        7.2737737749       10.6412169987
  O         9.4066085573        9.5734867958       11.0612993556
 Si        12.7945959380       11.7851740952       12.0903419459
  O        11.4805751749       11.3041852998       11.3035197460
  O         7.6781273908       10.4797965986        7.7680209220
 Si        14.2316678971        8.0648721820        8.5078337357
 Si         9.9050027961       11.0743959311       11.1574044254
  O         9.4078123388       11.6489273684        9.7308973717
  O         9.3181363413       11.5703329353       12.5735101487
  O         8.8223351879       13.0338151381       14.6023313219
 Si         9.7728024812        8.0407225567       11.1392178707
 Si        14.6809324082       10.1816394435       10.6063294230
  O        13.8722240235       10.5617893418       11.9664370517
 Si         8.2332434204       11.7712188074        8.6110968476
 Si         8.1237684406       11.9876423686       13.5673122092
