216
14.861 14.861 14.861
Si      6.923604297100016      0.916557605599984     13.261785689499996
O       7.275361719700011     12.837110002600003     10.149597840999997
O       7.117460133400017     14.584060705999994     12.204952741899993
Si      2.346780591100010     11.429350546299982     14.088819731300001
O       3.490109604700004      0.843939852499998     14.447636698599997
O       2.824159062100002     12.970186796700006     13.884480031799990
Si      6.131021776900018     12.963423760499994      8.991617686099993
O       5.450519306499986      1.522550945699997     13.041746094199997
O       7.275107482900025      0.457568090999981     14.782055384999991
O       2.160419078200002      1.204233491000000     10.227933958599998
O       2.928825390800003     10.272914843699995      9.579431824299995
O       3.390582231600013     10.433074547299990     13.360530328499987
Si      2.743514815600014     14.333472696299996     14.772466415799990
Si      8.081549293800007     13.904851297399990     11.091697374199994
O       5.634605871700020     14.482177781699994      9.163328863899995
O       4.825882060900017     12.022056890100002      9.152373877099995
Si      1.497523991900015      9.924316199900002     10.261352790199995
Si      4.032688879300010      2.055202923399986     13.560268580999985
Si      3.466966879199990     11.395036230499992      8.536556111999996
O       2.158351947500007     12.342743151499983      8.253955436599989
O       1.163701418100016     14.821014559799984     14.585453074599997
O       6.289077838500009      2.113339025499991      9.077378834199992
O       2.343450944700010     10.869846162199996      0.751175602399999
O       8.764249831699999      0.203507240499991     10.157856841499989
O       0.666486630800010     13.914823910799994      9.654628868199994
O       0.663297992600008     11.300545817699986     10.079849809899995
Si      0.743377315300012      0.463550230899987     10.387642241099993
O       9.162719077000000     13.089846129999998     11.941296529300004
Si      0.684677371900006     12.474792964200008      8.958180258299993
O       0.499538521600012      0.196343522199978     11.967149897199997
O       0.859042211300018     11.356140151699991     13.455658276999994
Si      9.656685463000004      1.301085197399983      9.357181826199998
Si     14.120431630700015     11.188850220399992     13.475299200599997
O      11.254370123499998     13.654813508499995     13.360800754399992
O      13.478912680300018      0.109315840299994     13.854978324199985
Si     10.273517246300006     12.455145216200002     12.889804882399998
O      13.551681194600013     11.010323348799991     11.968690782699996
O       9.684273298100008     11.836770192099989     14.272957411699993
O      13.391466781300005     12.424642567100005     14.199312316499995
Si     12.242692116800002     10.891727421099983     11.003781391100000
Si     12.537283353900003     13.778115333599994     14.324541275299996
O      11.012737614300004     11.344879355299996     11.964526910099996
O      12.318978984400010     11.764479231799996      9.646376189399993
Si      0.105979320500001      0.584336454199987     13.492441821099991
O      14.628869588400013      1.525136691399988      9.662745719799997
O      13.803967478499997      9.949627453399989     14.442288477299996
O      11.078069788400020      1.622570216600004     10.061777042100003
Si      9.834009177900013     10.616187522499981      0.472606001899988
O      11.280746325800004      9.937254637399997      0.234510565199984
O      14.721645221100017      2.189143976999997     13.444061436999991
O       7.854403320400020      2.192165266899992     12.946024972599995
O       2.979845821400006      2.271780187299989     12.387019411999987
O       1.828563811900011      9.292222001699992     11.706311741599995
Si      2.650869466200012      2.599805903199986     10.861902650599987
Si      4.830938471500003      6.020187443499995      8.675116227899995
O       7.936836390500011      8.043293759100008      8.902948090300001
O       4.145554717100007      3.492083593899995     14.266534802499988
Si      3.071426085000021      8.995603720600002     12.690497604799988
O       4.393617570700026      8.525718718300007     11.880814569399993
O       3.986801685200014      2.941121536499996     10.079690369800002
O       6.288914426500021      3.603029383699983     11.224466024200000
Si      5.519552794599998      3.298315398399987      9.835207951199992
O       6.739443853600007      7.293627896699996     10.967411902399991
O       7.377381501000017      7.222038746299993     14.352806817499992
Si      5.211901451599998      7.199575706799995     11.442650613599998
O       5.298605236400015      6.316061407399991     12.790086911399994
O       5.463882352600024      5.569473992599994      0.332387820799999
Si      6.388814024300005      5.995150236699984     13.949232311099987
O       7.273059542900016      4.738115121700000     13.448385921299989
O       4.460098100700005      6.561768470199996     10.161422605199993
Si      7.507825229400005      3.626067650599990     12.304222944000003
O       2.570145681400015      7.891555862799989     13.776555851999991
Si      1.872234924299996      6.466085032499987     14.132836342999996
O       1.575308105900020      3.833296170799986     10.824539673899990
O       5.445555048399997      4.548767356500003      8.833114932699999
Si      4.095550389700016      4.713822089200000      0.456241497099996
Si      8.090492463100027      6.975906033199990     10.141268975999992
O       2.807964549500011      5.665119552199996      0.321813194499993
O       1.907980739100010      5.563690444700007     12.795029887899995
O       8.436246196300010      5.480548331699994      9.488051343900000
Si     11.956296095500010      2.989683882499998     10.137007599899999
Si      8.778817445300007      7.965807563399986     14.752434272899986
Si     13.581871465000011      3.140307471799997     12.790301188900003
O       0.424873558300020      6.317185225900004     10.878795722899993
O       0.523331957900005      8.795052421499996      9.659714519500003
O       8.850506479400003      4.010129796699997     11.545069357699996
O      10.420914711000007      4.084132303799995      0.493743177199998
O      12.968751658100009      3.329691367399999      8.915369351399997
Si     12.744108598200009      9.455240011700004      0.682509245200003
O       9.181404853300018      7.053826043999988     11.305329044499999
Si      0.860703283800006      5.011369943599990     11.707044490499994
O      12.063358454900012      9.412443044099998     10.410128021500002
Si     13.737674511100005      6.493979756300004      0.519847684499999
O      10.905250120300014      4.247881555800002     10.066618017999991
O      13.347737044000011      7.289165706899996      9.406062797699994
O       8.665864733900008      9.568617277699992      0.063058059099995
O      10.667586705500009      5.332994867599987     13.033211443899994
O      14.385954248300013      4.500293444900003     12.458095731499991
Si     10.378131388100014      6.785970496799982     12.360408423500003
O      12.968820524000014      7.883667298199989      0.655957644900001
O      11.641103582300000      7.136287217999977     11.396870498199993
O       0.931024583900017      6.639710128299991      8.411821337299997
O      12.645750255400008      5.568635724499985     14.679942782699991
O       8.932057446300009      2.767306123299995      9.235866396599995
Si     11.959099793400009      7.871878818000000      9.973680621099996
Si      0.076135312000014      7.250949113399986      9.622786503699988
Si      9.276499045300016      4.161670990400000     10.011488692499993
O      10.908103468099997      7.700730201399983      8.727576150299990
O       0.345806838300005      6.637498629299976     14.686197071599986
O       9.925226614100019      7.703536283799997     13.627557903499994
Si     14.245160743300010      2.481628556499997      8.426491425799995
O      12.890609828500017      2.701670955699995     11.407826296900009
Si     11.472134368700010      4.576282077999998     14.227007062400007
O      12.312317380200012      3.276282042699998     13.776324786999989
O       7.684240443399998      0.454687965499978      2.621901607799983
Si      7.409780633200016     13.869716783999998      3.350710276099992
O       7.122150806799997     13.912023817199993      4.962707444100000
O       6.089618113000012     13.331106339699993      2.546756233299996
Si      7.585159207000017     13.865932587399996      6.532478949700002
Si      4.465362362400013     13.186136524900000      2.449982800099990
Si      3.051333101000020      0.525239462699985      3.735555169399987
O       7.198576723200011      0.452994263299987      7.184233481699986
O       4.216642128300004     11.590947572699983      2.466525993699994
O       3.891825102500015     13.998969801199989      3.721241949799999
Si      2.999590598799999     10.553046846999992      2.194019087799998
O       3.879726577900009     10.761383029699994      7.097597163400004
O       4.633911497200007      1.015295726799994      7.339242362699987
O       3.397649653800023      1.273951019200004      5.105968769300003
O       1.829181809100010     10.843759497499978      3.228228561399983
Si      7.290798765000007      1.332777992299986      1.301400641799989
O       6.779061667300003     12.814663518900000      7.494801704499997
O       3.574656525400017      1.601760934799995      2.647092433899990
O       1.586810236600002     10.600882831300000      5.854141412599996
O       1.499271521700018      0.135349910899987      3.458291693499994
O       5.789841204399998      1.934049888099979      1.394823536400001
Si      2.860402606000014      9.743798991899999      6.354506664199994
O       3.558164867100034     13.826440609799983      1.241335684599994
Si      4.063287469000016      2.080729869999992      6.317899886499984
Si      5.970859526000006      0.835614047299989      8.178425069599999
O       8.765384989200012     13.000529630999988      3.222918519799989
Si      0.925266214800011     11.159998098099994      4.499167815099985
O      11.647808112600005     13.486229060799996      7.919517519399994
O       0.750611309600015     12.745791793399993      4.536848126399986
O       9.167812416600016     13.508857762200000      6.676247916700000
O      12.062006867600006     11.192689538799987      6.862904287999994
O       9.762271334900008     11.017860068299987      2.044660406799991
Si      0.216826944800007     14.144306387599988      3.986774783699994
O      14.462493149900014      0.023971906699995      5.263065874999987
Si     10.542136820100000     14.297138715199990      7.072265942199997
O      11.316472020700017     14.674529123599982      5.707913072499999
Si     10.039311891700011     11.995480271999995      3.317940536699992
O      10.162570298000015     11.268070510599992      4.786306170599999
Si     12.277845423100009     14.022512130499990      2.563384733100001
O      13.881570928000011     13.986196288699995      2.890131102499986
Si     11.407040304900006      1.067404139999979      4.700878760799983
O      11.473985312700021     12.740267770399990      3.131230826399998
O      11.568509985399997      0.460830587199988      3.213632682099983
Si     11.136407521100010     10.380980096799993      5.776909305599999
Si     14.093034143700004      1.508711831200001      5.701296265599992
O      14.386276050500010     10.440484513099991      4.295713959000001
O      13.800371622500004      1.454433597699996      7.270299839199995
O      12.739383838800016      1.952821435199992      4.949657083499996
O      12.072298677400008     14.063067932299987      0.974644516799994
O      12.973046062600003      9.949823009999996      2.204205340000004
O      12.045325978900022      9.596575473199991      4.708640692099996
Si     12.576315745100009     12.164865960299986      8.089025540399998
O      10.015350051000013      0.703580362799989      7.912204037300000
O      10.088167876900018      1.926884589899986      5.036072571199990
O      14.212410828300012     12.341614351599986      8.004787323599993
O       2.801910161800010      2.771416243799998      7.017345848200002
O       5.300235364000002      3.098139217900000      6.027610990700007
Si      4.770720023400005      2.663928189599999      2.410141790099996
O       4.057514676400018      4.003325493899998      1.889933956599994
O       3.482563251300010      8.961749203899997      5.106955957799989
O       3.479838836900013      9.018978788299989      2.478732490999993
O       5.710144443400007      3.167331281899987      3.607020445499985
O       2.491023877900018      8.697646775099996      7.533973365299999
Si      7.430500000000000      7.430500000000000      7.430500000000000
O       6.870889266700014      7.876377765499990      5.941988579699989
O       5.214623269499996      7.548248581399993      3.871873109899983
O       6.208555203200024      5.411862587099999      5.103440974900003
Si      6.494683179400004      6.957633278799995      4.637912911600004
Si      6.298796374700009      3.798687567799993      4.956491209400006
Si      3.700088122200028      8.056895521399998      3.786610610099996
O       2.735515634600008      6.725717330199980      3.793374400399989
O       7.668489826800016      6.989669926999999      3.544544355699995
O       7.884519547400002      3.418278592599996      5.011331954700004
Si      2.150416883299997      7.126016755499998      7.496882944799994
Si      1.678128622600013      5.997902108299980      4.807427667199994
O       2.000101996100015      4.582886444099976      5.525769507799992
O       1.581475075700012      7.036038279699983      6.009189881200000
O       6.061631986000003      6.734205362400001      7.932020762699993
Si      1.428284902100011      3.366495865899990      6.432011116199995
O       3.472591144500011      6.232228050199988      7.822201648899994
O       8.280773327000020      2.596553117999994      1.139404999999994
O       8.934554534800011      6.972985579699979      7.004563375999997
Si     10.375190149700009      7.725069274999995      7.175583459599999
Si      9.277967107000013      3.773590158700001      1.588031657100002
O      13.732779675700003      7.921487899400000      3.696783492799994
O       9.252240099300016      7.534419901499993      1.385413502099999
O      10.329559975400008      9.280333251200007      6.672790198500006
Si     11.030487629100007      5.920165051899995      4.827261845699989
O       0.244165279500012      5.745235608599997      4.186862459999996
Si     13.772054842300010      6.320999387100009      3.526370178899991
Si     13.282018777699998      9.460990318299995      3.709213966099991
O       8.509700992200006      5.160883943699994      1.899598388599993
O      10.169396168800017      6.558419937999992      3.613356420799998
O       0.491482159800011      3.498455340499980      7.769531644499993
O       0.515982952300015      2.454951903599988      5.438200821499994
O      10.253072644500007      4.575931435300006      5.283389990499987
O      12.488794790400005      5.642379046099997      4.210084990599996
O      11.254083478400007      6.887193539999992      6.105039690999994
Si      8.899979547000010      6.565267396299991      2.617818461899979
O      13.897078347700019      5.895945092299997      1.991308802500002
O       9.839709531400006      3.350917274199996      3.034698253899991
Si      9.459523069400007      3.340964640799996      4.606172520500007
