216
15.117 15.117 15.117
 Si         5.2531284853        3.8402268496        5.3231489099
  O         2.1208939991        4.7976022671        1.3568631338
  O         5.1843523781        2.8330623618        4.0215461329
  O         3.7077765155        2.0532601283        1.8880310889
 Si         4.5694275838        1.5883618786        3.1726106753
  O         2.6837723089        5.7564693393        3.7059327812
 Si         1.6622381033        4.7919176400        2.8960463736
 Si         2.5836045571        0.6832448137        5.3686236032
  O         4.2505785286        3.7045770513        6.6035864859
  O         3.6796597608        0.8462335188        4.2502366762
  O         1.1752917903        1.1001541069        4.7992330217
  O         5.0429041520        5.3167544657        4.7348980910
 Si         4.1446779789        6.4174577939        3.9816610698
  O         6.6943108918        3.6202092689        5.9837940066
  O         1.5783875353        3.3039980346        3.5444522821
  O         2.9191484381        1.4311840414        6.7165160911
 Si         0.5296798882        2.0776370884        3.7287207027
  O         4.8880818616        6.7770405566        2.5867501945
  O         5.5123236524        0.3950271170        2.6041566534
 Si         3.8567596190        1.9157408958        0.2739225496
  O         0.1392276505        5.2697234351        2.9964363232
  O         0.2406966932        1.4188140259        2.3024420206
  O         0.8690076644        0.0714041237        0.2345116502
 Si        14.7737456572        0.4035049423        1.2147851344
  O         8.0994629552        1.8886011600        0.8614467277
 Si         8.2289360639        3.2896279658        5.6747048519
  O         8.2741343930        1.7415754695        5.1937429100
  O        12.9067045904        2.4366226519        6.6944767395
  O        14.2354760670        2.3593609892        4.4048636843
  O         8.6744478207        4.4643617050        4.6539337769
 Si         9.3854269515        5.7096896960        3.9036970593
 Si        13.7075842339        5.1515015024        3.3905727675
  O        13.4522258271        4.6487620419        4.9491063038
 Si         9.4626477682        1.5214960942        1.7021743060
 Si        13.0535274491        3.0650219263        5.2129124781
  O        11.6514257181        2.8324818583        4.4059991545
  O        10.7855371716        5.1123956736        3.3889430905
 Si        11.3785935157        3.6564154473        3.0172732053
  O        12.8525062397        4.0936513530        2.4541959985
  O        10.3803224068        2.8320431648        2.0532295436
  O        13.2232400851        6.6329758503        3.0677766164
  O         8.5760566167        6.1384954729        2.5946877790
  O         9.1318858484        0.7090067558        3.0522715309
  O         9.6071811195        7.0850934320        4.7295819872
  O        10.6295286111        6.6195333523        6.9467768901
 Si         8.5496705364        6.9638386627        1.2162749335
  O         9.1225964783        3.3763457788        7.0220392995
 Si         8.5181733645        0.3064977726        4.4849722762
  O        10.4051472260        0.5423125012        0.8561110559
  O        13.6130400768        1.1764219763        0.3930668472
  O         8.8164754858        5.9081969367        0.0101841858
  O         7.0787173240        7.6443379653        1.2693774716
  O         4.1725535904        7.7990431482        4.8756391645
  O         6.3868266810       11.1073415167        0.6432186674
 Si         4.9701262067       10.3888765575        0.4941073761
 Si         5.8547198926        8.0402029652        2.2519675641
 Si         2.3492598881       11.9580428985        0.6763304473
  O         2.5260052240       14.2616291697        5.7423111614
  O         5.1263248579       12.9954915112        3.7734012785
  O         4.4992056384       12.6627519648        6.3056165284
 Si         6.1344165587       14.0925197786        3.1172771286
 Si         4.3429964826       12.0352790481        4.8286267708
 Si         5.3317459249        8.9679804964        4.9867736908
 Si         1.6792560148       13.0651677326        5.1078978243
  O         2.7530815394       12.0388207150        4.4857177570
  O         4.8018458763       10.4887208662        4.7996842670
  O         4.9491217601        9.1337058904        1.4940720065
  O         0.8677034342       12.5964411590        6.3827377287
  O         6.0549430754        8.9015079581        6.4376496170
  O         6.3025964086        8.6563351639        3.7050026124
  O         6.8495060000       13.4568009472        1.8145942619
  O         1.3342827047       12.4518265302        1.8270871069
  O         0.6338811764       13.5516723370        4.0130021780
  O         3.8741788623       11.4990671118        0.9541384925
 Si         7.2960959147       12.4094666363        0.6647809419
  O         7.1698367944       14.5639857219        4.2561246925
  O         1.7308534447       10.5469410868        0.2391324303
  O        10.9534757309       10.4539042938        0.9600142685
 Si        15.1475403065       12.9206922064        2.6650557745
 Si        10.2217821123       11.6833298790        0.2516323887
  O        13.8567065735        9.1523911775        3.6210181359
 Si        14.0447097489       10.4910316236        7.2291416166
 Si        12.7042654246        8.0269390938        3.6103121747
 Si        10.6819594809        7.7267250121        5.7684727724
  O         7.8766503037       12.9153312480        7.0132867146
  O        12.1142291689       10.8530964365        4.6569988302
  O        14.3329322614       14.0951358856        1.8885954870
  O        10.4714771688        9.2893422306        6.2086018894
 Si         9.4020141601       13.2381223191        6.5067885832
  O         8.7939242486       11.9021598333        0.9511567297
 Si        13.6791623869       10.6306152378        4.2575127080
  O        10.1582382446       11.8795038180        6.0609256615
  O        11.0305146619       13.0722875158        0.4018953438
 Si        11.0907048907        8.8636253190        1.1575354484
  O         9.6734202750        8.1098439299        1.0137950068
  O        14.4857501066       10.6217849947        5.6678071343
  O         9.4274826166       14.4022497612        5.3606126128
  O        14.1774031342       11.7176065746        3.1577561774
 Si        11.2813322965       10.7206375978        6.0623586496
  O        12.4373566716       10.8666920062        7.2318634805
  O        12.1458118134        7.7837344417        5.1001477777
  O        11.5229057643        8.5719862281        2.6706844548
  O        12.2008245183        8.3477748767        0.0908095899
  O         3.7694089993        5.3570973431       11.5758503414
  O         3.4545654339        4.8063087806        8.9678033546
  O         1.6588829437        6.1452116696       10.0854080026
 Si         4.2805591042        5.8021324782       13.0532716125
 Si         3.2436388334        5.8955131357       10.1347610198
  O         5.6648683429        5.0394499565       13.3867464342
  O         5.8261668133        4.0910219575        8.6598383463
  O         0.7118034531        4.7161640434       14.2472005710
  O         3.1649452693        5.5035908809       14.1623631965
 Si         4.3598581081        3.6917230195        8.2270030020
  O         4.0927756928        2.2007273809        8.8096148927
  O         1.9011856236        0.8668719700        9.0383259094
 Si         6.9769998180        4.1246156997        9.7410127637
  O         6.5337344346        3.8607804938       11.2642142638
 Si         6.9418858998        4.2742417982       12.7661049784
 Si         0.3913686977        6.8872389365       10.7102744230
 Si         3.2634936436        0.9576883831        8.2139965486
 Si         7.0067116871        1.8801960729       14.7392623485
  O         7.3920242448        3.0590871505       13.7111585110
 Si         2.1816226330        4.4819447345       14.9017709600
 Si         0.4498047826        0.2211635638        9.1844739559
  O         4.4777843120        7.3885121514       13.1533586085
  O         3.3887386397        0.4789354057       14.8001640352
  O         7.0938578360        0.4893941795       13.9348052106
  O         2.8373023101        2.9981117415       14.7263776902
  O         0.0807054109        0.4764550288       10.7148772138
  O         4.0107206763        7.3117798927        9.9257497891
  O         0.0008875570        6.0693240409       12.0389115222
  O         7.5694357219        5.5914892908        9.5378857363
  O         5.4446270017        2.1242063170       15.1209622744
  O         7.9503664369        2.9156679222        9.3691642022
 Si         8.1241509157        7.0850698972        9.5794759762
  O         8.2640191651        5.1907942160       12.6712137088
 Si        14.6525679698        5.5292509007       13.4841752008
  O        14.0955466274        6.7759376480       14.3312332232
  O         9.3038756436        1.0105633649        8.2564516978
 Si        11.7801886746        3.8331816595        9.7613811613
  O        11.8030561695        3.9303538884       11.3617074957
 Si         9.3987952472        5.8375088943       13.6168880966
  O        10.4656800701        3.0690224503        9.2879191164
 Si        11.9636638634        3.9602474311       12.9694169462
  O        13.0061300874        2.9292452108        9.2274791853
  O        10.7755308956        4.9524764125       13.5391497353
 Si         9.2022795361        2.6018848904        8.4429320780
  O        13.3987356282        4.5619537150       13.3054057368
  O        11.7308880409        5.2752313632        9.0528029300
 Si        12.9541692569        1.1331766607       14.0152810223
  O        12.0574621610        2.4491818883       13.6166324533
 Si        11.0134291980        6.6078177889        8.5127256353
  O        14.4677382286        0.9503768219        8.2548851286
  O        11.8827357043        0.6315298177        8.5681570100
 Si        13.0493207863        1.7118005098        8.1619756234
  O         9.7019612599        6.9399610746        9.3632988883
  O         9.4637765077        7.3864075155       13.0819006439
  O        14.1618140905        0.7911555721       12.9988434278
  O        14.3283349163        6.9998427062        9.6146327380
  O        11.9742529222       -0.1434583844       14.0057070692
  O         1.5490361812       14.9543205063       12.9082474408
 Si         4.1380110482       13.0565014303        7.8368234476
 Si         2.0822204424       14.7189542005       14.4264955254
 Si         1.0578288926       12.4973053946        7.9719858425
 Si         6.4481101257        9.2346958529        7.9793007391
  O         2.6871312395       12.3610576708        8.2584270080
  O         5.5212979472       12.5943413786        8.5667390045
  O         0.7164574312        8.4295491174       11.0168402599
  O         4.8743935731        9.8370991582       14.0844063318
  O         5.1111685868        9.3712969574        8.8952258360
  O         5.2770942656        9.1403582797       11.5028638733
 Si         4.3331475436        8.8730961629       10.2152898308
 Si         5.3958195755        8.6978409720       13.0582680778
  O         2.9591776223        9.6849468346       10.5444170924
 Si         1.5840024318        9.7256153900       11.3801187297
  O         1.7317497183        9.5968311281       12.9899439146
  O         0.7677347585       11.1146309142       11.1259612995
 Si         0.7704127693       10.1553427117       14.1682029442
  O         0.5461954558       13.7746443144        8.8103292057
  O         6.9293583266        8.2714127885       13.3777553326
 Si         7.1023421584       12.2543294771        8.3087104422
  O         7.2365276291       10.6443139832        8.1106726722
  O         4.0169385183       14.6452102057        8.1829449908
  O         7.2415805220       13.0756665243       14.3094406218
  O         2.4334886119       13.1605550904       14.7095323044
  O         7.3982893247        8.0318225767        8.4955564244
 Si         0.0843236456       14.9822063523       12.1879935530
  O         0.0825664508       11.5056299010       13.6186581002
  O        12.0419489887        7.8011959427        8.6589454974
  O        15.0494441465       11.3339286696        8.2031257373
  O        10.3174477580       13.7838932338        7.7136132490
  O        11.1077354929        9.9987195556       11.7274192356
  O         9.9892834158       14.4223792418       10.1556815825
  O         7.8623627382        7.7132504462       11.0185718418
  O         9.6129179499       12.1348589205       11.3991128398
 Si        13.4930068736        8.2765884012        9.0799147326
 Si        12.6902070190        9.8235794740       11.6542588681
  O        10.0901479081       11.3411829156       13.8078913040
 Si         8.8606111426       13.3925736851       10.7440364709
 Si         9.8791291100       10.8523485707       12.3026700837
  O        13.2334744447        9.3630620345       10.2316271752
  O        13.3222513446       11.2801765925       11.8896336362
 Si        14.7980154509       11.8742139061       12.1014595199
 Si        13.5059630876        8.2666578897       14.2673789677
  O        14.1769395814        8.9781741500        7.7999966379
  O        14.7254548631       13.4564368799       11.9717336606
  O        13.1467417551        8.7323732188       12.7587293090
  O         9.4442858025       14.4074409822       13.9323496230
  O         7.9444904995       14.0933600425       11.8907880734
 Si         8.2597519932        8.2892518975       12.4519352744
 Si         7.9092121855       14.2985211564       13.4897348275
 Si        10.4186260275       15.0379967800        8.7053793902
  O         7.8790874974       12.8314624231        9.5989794879
 Si        10.7184988023       14.5221381004       14.8850132986
  O        14.7277444997        9.2078512453       14.7314068950
  O         8.6489158483        9.8332888042       12.2855879109
