216
14.9 14.9 14.9
 Si         3.5249183936        4.0628667333        4.0243058967
  O         4.4726809983        3.3159360222        2.9872959469
  O         4.0526956947        3.5507689786        5.4523064447
 Si         4.6379674896        2.0141261904        2.0767325383
  O         1.9925531776        3.7262824370        3.5556993876
  O         5.8632749909        1.0950268307        2.6320298491
  O         3.2288238211        1.2332036432        1.9901665315
  O         3.8056997269        5.6500951262        4.1364259375
  O         4.9817857955        2.6318920690        0.6368503444
  O         2.3922438484        6.4541428973        2.2332373107
 Si         0.8410614426        6.2723318741        1.8069838143
 Si         3.3404438373        7.0131450564        3.4401456219
 Si         6.5247519302        0.4656485511        3.9764117525
 Si         3.9473639533        4.1136609004        6.9462404030
  O         6.8695061188        1.6416287212        5.0432290641
 Si         0.4527521269        4.1791438151        3.8081868292
  O         0.1624003587        5.6314698908        3.1375936784
  O         0.3344773808        5.2111048294        0.6540540346
  O         3.3843734615        5.6197677613        6.9579729091
  O         0.6721597717        5.7141094588        7.4513637055
  O         6.0635242060        5.1204916482        0.4227097625
  O         0.4276182434        4.3743597923        5.3681018536
 Si         6.1808636593        3.5387290017        0.0766205742
  O         0.0022731396        0.4890358189        6.7955691952
  O         7.4552797922        3.8848624919        6.1959884432
  O         7.5427252995        2.9606380242        0.6790340987
  O        13.0715453677        6.3819048812        1.0810768805
 Si        14.5616634204        4.7057509719        6.7091542397
  O        14.1666450129        3.1467068264        3.4005050922
 Si         8.1032044495        2.6219863100        5.4425832628
  O        13.2223948905        5.5592365152        6.3694094599
  O         9.0941731278        2.0030795891        6.5473817504
  O        12.9954091868        3.7269647145        1.2284011123
  O         9.0248100936        2.9052563907        4.1365431845
 Si        12.7014441313        3.0707255667        2.7009029715
  O         9.8498749261        3.4667909460        1.6377071587
 Si         9.9292790900        3.8700476058        3.1893110316
  O        12.0863493904        1.5754139383        2.7280403425
  O        11.5319045178        3.8865105835        3.4847182039
 Si         9.6011695302        6.5524610556        4.3940428724
  O         9.3401391404        5.3389118031        3.3897548897
  O        11.0037712412        6.2844863041        5.1349519819
  O         8.4580139703        6.6129562285        5.5140024629
 Si        12.3601780891        6.8207041983        5.8042512004
 Si         9.6184477118        0.6015248369        7.0993899391
 Si        13.6070673303        5.0145263246        0.4493529458
 Si         9.1036365449        2.8900025006        0.3401577599
 Si         8.1023691528        7.0470253929        7.0185337149
  O        14.3273123685        3.2289930244        7.3715315303
  O         9.6186271441        1.4009206801        0.0664699421
 Si        11.7655637121        0.0023328150        2.4774721142
  O         5.3877312442        7.8002779516        0.3459302627
  O         0.9038650235       14.8128456859        2.4848811970
 Si         2.4158434152       14.7404805845        1.9139524292
  O         0.5003842576        7.7837083295        1.3258417502
  O         2.7342126783        8.1155899334        4.4795527646
  O         4.5417770781        7.7891556013        2.7229279712
  O         2.1743678276       14.3201485265        0.3808519000
  O         2.3089185053        7.8789215568        6.9552527467
 Si         6.1086372617        9.5115617633        6.6967668731
  O         2.9612312755        8.7686452239        0.7469446282
  O         5.3729199550       14.3188489649        4.4705977473
 Si         1.4070798623        9.1068389852        0.9958364975
  O         4.7587503958        8.9348406599        5.9743283584
  O         2.6457940986       10.3529894960        6.2836458146
  O         1.4851382610       12.9832139706        6.4581165175
  O         5.0452073379       10.0753537344        1.5742167723
  O         1.1444103932       11.2629086818        4.5438163412
 Si         4.4615173797        8.6198988510        1.3438794803
 Si         4.4072735931       13.1706971370        3.8226453015
  O         5.3958212683       12.1650375767        3.0500196422
  O         3.3102608095       13.6756335257        2.7352308552
 Si         2.2208999688       11.7770195367        5.6084751407
 Si         5.8394865222       11.4461421164        1.6883559132
  O         3.5624525740       12.4190475979        4.9686920119
  O         1.3291896622       10.1025079763        2.2436947264
 Si         3.1212166871        8.8280611165        5.9205328592
  O         6.8620372915       10.7651073806        5.9575459246
  O         7.2050031982        8.3580167525        6.8724072538
 Si         0.3381941289       10.8897193395        3.2237748916
  O         5.4631642610       12.3393170778        0.4063312139
  O         7.4262739498       11.1805286299        1.6599553910
 Si         0.1080938183       13.8611098468        6.2148656386
  O        11.5068388112       14.7355951266        0.9085168426
  O         8.7844787070       12.5260720474        4.8828347414
  O        12.2517827489        8.4446097390        2.1393546622
 Si         9.3127469625       13.9978809754        4.4123611701
  O         9.6115375003        7.8642177181        3.4723080467
  O         9.1967280111       11.0118494885        7.0665396365
  O        13.0870604726        7.7062468924        4.6426529365
 Si         8.6424332144       10.4395278834        0.9035975684
  O        11.9254215023        7.7765597251        7.0397290201
  O        13.1494330535       14.1589117635        2.7354280062
  O        13.9850405968        9.9336293348        3.5548920165
  O        10.5182381685       14.2393747637        3.3172919724
  O         9.6991104169       10.0929026411        2.0695948133
  O        14.8281721729       12.3016806289        2.5639150077
 Si        14.6627451786       13.8251953292        3.0789439765
  O        14.8301003943       13.9895239869        4.6464385832
  O        13.7394347491       12.9970325927        6.7151291766
 Si         9.9206221048        9.4417322128        3.5334482577
  O         8.9254906509       10.0108342275        4.6347345817
 Si         8.4280819510       11.1362533756        5.6489583612
  O         9.9351227477       14.6433145406        5.7718824556
  O        11.4112357627        9.6903465424        4.1288769580
  O         7.9709152928       14.6557293149        3.7427844490
 Si        12.3987897804        7.7850846672        0.6727849041
 Si        12.7391639425        8.9215003571        3.6131073005
 Si         2.6699643284        3.2462799337       11.6156066378
  O         2.5822945206        3.3980416568       10.0274751504
 Si         4.0422880882        5.6797806773       12.1424001897
  O         4.0767568889        2.5554085817       12.0196684787
  O         2.7225485189        4.7317900575       12.2564846620
  O         5.2208174828        4.7984102922       11.4834470239
 Si         2.5414808885        2.3377206918        8.8314773808
 Si         5.5146995038        3.2857073313       11.9623039017
  O         1.4439610508        2.3146564126       11.9979680336
  O         6.2115264561        3.3159280441       13.3963040337
  O         4.5506868342        6.1281818814       13.5761627748
  O         6.5340865039        2.6463457949       10.9312915172
  O         3.7964538494        1.3352027449        8.9277210328
  O         1.0821271309        1.6583044890        8.7762119847
  O         0.4891295219        1.1098793454       13.9784364527
  O         3.8204318564        6.9613327578       11.2549045472
  O         2.2439529467        6.4611159040        9.1924281211
 Si         5.8287535731        6.4794307151       14.4786007639
  O         7.2020571711        6.9443053035       13.7483630686
  O         5.3526067820        4.0444560728        7.7538516143
  O         2.7430811538        3.2215656570        7.5281614219
 Si         6.9529510963        4.3281576837        7.6681197055
 Si         2.1270458991        6.4071377565        7.5950207359
  O         7.2700932977        5.8973779175        7.7774152396
 Si        14.9339197007        1.8805778089       12.6052720119
  O         7.7677949730        3.5763425589        8.8497939461
  O         8.4412904946        1.3208073521       10.0094197452
  O        13.3448905638        1.3308495598        8.7683602858
  O        14.0711260348        3.2290049047       12.5057214891
  O         9.3586763151        3.7262278270       13.8989647052
 Si         7.9878415964        2.8470215539       10.2730438212
  O        13.0760400183        5.0553663340       13.8287544234
 Si         9.9542803718        4.1630320757       12.4757757763
  O        11.4565321965        3.5774212228       12.2636986247
 Si        12.8962265972        4.3110293670       12.4039143109
  O        12.9845382853        5.3920011303       11.1885300530
  O        10.1129608791        5.7668814086       12.5876288827
  O         9.0157353365        3.6421900147       11.2533956028
  O        13.9913771783        0.8119624420       11.8478420876
 Si        12.5535964871        6.9237194288       10.7776043449
 Si        12.0439841495        0.4472687846        9.0882352395
  O        11.6700314874        0.7485485167       13.3240402594
  O        10.8411729793        0.9060984588        8.1103727290
  O        11.7380343114        0.4906562252       10.6804019960
 Si        10.6631899079        7.2031314039       13.1054514726
 Si        14.6356236199        1.6971656306        7.8760782440
  O        11.5137170935        7.0316150969        9.5314797254
 Si        10.6748893921        0.2749333370       14.5202402490
 Si        12.5135484319        0.1614838815       12.0659023216
  O         9.4523598273        7.2882465601        7.8665195637
  O        11.1157142769        7.3582188333       14.6613721029
  O         6.1707698381       14.9872799640        9.1131430370
 Si         4.6010211522       14.9722999391        9.4914219313
  O         4.4668152265       14.9792345162       11.0914223428
 Si         2.8076219105        7.5689687367       10.1920849581
  O         2.4010425916       14.6474005619       12.7528259942
 Si         1.3181403574       14.5956203639       13.9542831835
  O         1.5823449570        8.1012827951       11.0821302712
 Si         3.7483574612       14.0104309883       12.1511985612
  O         3.8084248044       13.6650055999        8.9479994695
 Si         5.8976459254       12.6302691245       13.7884012394
  O         5.3792045847        9.7612883245       10.7873548126
  O         3.3130945152       12.6729300194       11.3381501601
 Si         4.6410995178        9.8435696840        9.3761579218
  O         3.7241888669       11.1261917566        9.2665521734
 Si         3.0640138374       12.4718452308        9.7470368724
  O         1.4929948433       12.3447248702        9.4312842954
  O         3.6376298030        8.6012118750        9.2812023768
  O         4.8741225971       13.7399342656       13.2581189489
  O         5.7850495862       11.3482016357       12.8264700346
 Si         6.4877934642       10.4049978566       11.7292025220
  O         5.7075402156        9.9339949799        8.1940530578
  O         0.2398449895       13.4143627027       13.7363749680
  O         0.7312442663        9.8400956741       14.6381013040
  O         7.1972053147        9.2712177743       12.5776788184
 Si         0.1063071812        8.7066356442       10.9823365500
  O         0.3290374019       10.0191224018       10.0958118980
 Si         0.1820620848       11.6080580470        9.9995940890
  O        11.8501715791        7.6034269614       12.0816894806
  O         7.4439647544       13.0820682745       13.7368090547
  O         8.4396521726       14.7259297452        7.8789325013
 Si         7.7752723799       14.8970803754        9.3423816809
 Si        10.8962078095        7.8768378363        8.2875014397
 Si        10.3230821347       10.9358585519        8.2182207632
  O        12.7684982867       13.4941317048       12.4220679783
  O         7.5265763043       11.1757412969       10.7632471240
  O         9.4268949777        8.1987194609       12.9833106293
  O        10.6764254785        9.4295286173        8.6833996477
  O         9.4243933032       12.2486795812       12.1378937155
  O        13.8508698729       11.8163470064        9.0248294113
 Si         8.9977823270       12.6425950230       13.6496267919
  O        14.4856211252        9.0419884074       12.4459938662
  O        14.8180139204       12.2455920715       11.4379620754
  O        13.1721420993        8.8627383850       14.6594121489
  O        12.3271546058       13.8190210394        8.7697203193
  O         9.8525694154       13.9032238941       14.0617065715
  O        13.9060560722        7.7033490187       10.3513182950
  O        11.6672348098       11.5928657778        7.6122705157
 Si         7.9730386482        8.3680504660       13.6263343880
 Si         8.7686372403       12.1993628867       10.6578169393
  O         9.2665759009       11.4121989336       14.6643957655
 Si        12.8906013718       12.5482851651        7.9984158409
  O        13.6576461093       11.2560330594       13.5798691408
  O         8.1878080419       13.6532705140       10.2671314549
 Si        14.0811622133       12.6140824799       12.8105644891
  O         9.8324777017       11.7472918888        9.5322259424
 Si        14.2205209855        9.7619627388       13.8444209323
  O         8.1100701323        9.1037722778       15.0643596636
