216
14.962 14.962 14.962
 Si         4.2381682026        2.1870785763        2.9841716499
  O         4.3936034707        5.4802298674        5.0801286692
  O         3.6490483803        2.9943932014        4.2418885071
  O         2.0005093798        4.9811351685        4.2501823256
 Si         3.2649237529        4.3421296894        5.0356020064
  O         3.3241362169        2.2346423105        1.6587762342
  O         5.6338092637        2.8933499095        2.6715133224
  O         4.4944728254        0.6640077861        3.3996647695
 Si         6.7286079336        3.4197312058        1.6661233392
 Si         5.7997177486        6.2335580667        5.2750583546
  O         2.9905503918        3.8979670842        6.5722685983
 Si         0.5271828717        4.5375686708        3.7741667142
  O         6.1599891436        4.5716369788        0.7398919596
  O         6.8961880283        5.0912444633        5.6439646794
  O         6.1388635787        2.8312465942        6.8147871577
  O         5.4049649861        6.9868863682        1.2519358147
  O         5.4726019291        0.4917448095        5.8198669509
  O         0.8331351111        0.5607773291        5.0702827923
  O         7.3171448926        2.2499078588        0.7496063957
  O         5.9962681651        6.9937031530        3.8558725479
 Si         5.7468845644        1.3022728272        7.1804801799
 Si         2.8216420294        2.6295330122        0.1741329686
  O         0.3316803455        2.9882279369        4.1634814103
  O         1.2609672750        2.9758238954        0.3259726258
  O         0.3390593829        4.6656100108        2.1672554229
  O         5.8132816091        7.3148428179        6.4902608126
 Si         6.0754757298        6.0496097191        0.1499433644
 Si         7.0017074308        0.8180523412        0.1282770243
 Si         7.3649146663        3.8557386671        6.5675797092
 Si        14.9394749458        3.8053756218        0.8352971674
 Si        14.6973213227        1.5050781279        4.3707464516
  O         7.9082192944        3.9999212945        2.5725662334
  O        14.3633295730        0.9063056958        2.8941620848
  O        14.4560054315        5.4899049364        4.5732990708
  O        11.0655519477        2.4151653944        6.4865834921
  O        12.9681620305        4.1495896858        6.2292667770
  O        10.3045204508        3.1302946273        2.1622800307
  O         8.5829369406        3.0581923782        5.8875649353
  O        11.8972747954        1.2421214224        2.4925212999
  O        11.8712326430        5.8375379138        4.4668632771
  O         9.7984331065        5.6442316186        2.9076258572
 Si        13.1094824811        5.5599803385        5.4654801709
 Si        10.9442310337        6.6347048906        3.4160835945
  O        13.3826021939        1.6694076049        5.3170872659
 Si        13.2985502382        1.3347158913        1.7314682513
 Si         9.7056997482        1.9060788471        5.8201799888
 Si         9.3528900114        4.4020861842        2.0038022683
 Si        10.3809736337        1.6352113855        2.7537093549
  O        10.0487072426        1.5780881923        4.3075460014
 Si        12.6590928485        2.5798741007        6.4582167534
  O        13.7191741399        2.8200653304        1.2386046111
  O        13.1268871132        6.7459220505        6.5698752722
  O         9.2071712279        0.5696879653        6.5688758891
  O         9.2934056018        4.7495558190        0.4134862954
  O        11.7298299830        7.0647246061        2.0853736226
  O        13.1378289589        0.4154362348        0.4168391707
  O         9.3804719303        0.5767933131        2.0792777220
 Si        11.6089726243        7.4157344702        0.5207516876
  O         2.5623189564        7.5560766067        0.7502794751
 Si         4.6585103442       14.6543572369        4.6742925239
  O         3.1685431557       14.2171247137        5.0643196542
 Si         5.4893717604        7.8700485903        2.5924792641
  O         1.4119780437        7.9766522076        6.0552620168
  O         3.9937318573        8.4831237465        2.7423764412
 Si         1.6894201977       14.2815863597        5.6553349475
  O         1.5794346386        7.9760041063        3.4024575755
 Si         0.9477761297        8.7055813342        4.7082217705
 Si         2.4938502415        8.4235581154        2.1278378497
 Si         1.6354342233       11.4068988661        1.6132954609
  O         6.5593581745        9.0591339017        2.4086897175
  O         5.4809510157       13.3162880591        4.3312489401
  O         1.5881489777       12.0569974852        3.0722692840
  O         0.9179238981       12.8877696052        5.4069121861
  O         1.4281966734       10.2453275584        4.9002336329
  O         6.5717569008       11.6298129848        2.7361576035
  O         1.8204119359        9.8146113064        1.6710274561
 Si         0.8026730940       11.6565258733        4.4116548047
 Si         6.8796410373       12.6050460166        3.9999627331
 Si         6.8676465626       10.4464425619        1.6658488079
  O         2.9269065342       11.8888084134        0.8138615124
  O         1.9055580947       14.3768456286        7.2283067432
 Si         6.3472565990        8.5790274378        7.3632758191
  O         0.2655404748       11.8863384610        0.9242659319
  O         7.0729193823        9.5524004355        6.3241393176
  O         6.0631870666       10.4803328782        0.2557959801
  O         7.0801574336       14.6308689378        1.2621474503
  O         7.4813502130       11.8855824053        5.3183826993
  O         9.3966951197       10.1435944126        5.2454584116
  O        13.2217848916        9.8884539710        2.2603587227
 Si        12.2409250749        7.8726155064        7.3514078313
  O        10.9029420977       11.0594699660        1.6673333377
  O         7.9734513823       13.7255461249        3.5626718882
  O        12.8849121572       11.2254798557       -0.0002797179
  O         9.2240135975       13.0519268427        1.4081010301
  O         8.4109221345       10.5463981533        1.2509250475
  O        10.3091318851        7.9691641385        4.0640195318
  O        11.9129390893       10.0623079868        4.4798948759
 Si        13.3889897975       10.0214325057        3.8603861372
 Si        12.1936531963       10.2911344190        1.0952146930
  O        11.1586946830        8.5676996877        6.4127290071
  O        11.7242628337        8.9857619594        0.3216965687
  O        14.2898424995        8.8094098339        4.4825771413
 Si        10.6726085466        9.2028623464        5.0380113284
 Si         8.4222111580       14.2469718016        2.1037963700
 Si         9.5814775303       11.5789336425        0.9101787748
 Si         8.1876687006       10.7017809617        6.1621763011
  O        14.1933943197       11.3867089924        4.1549597521
  O         1.1585146671        4.0747521312        8.4592690119
  O         4.0614785939        4.3224665681       11.9640252796
  O         1.7465234047        3.7432893653       10.9735129528
 Si         3.8940186066        0.7791730096        9.5485582706
 Si         3.3342976270        3.6451516572       10.6744913911
  O         3.5797694473        4.4020978257        9.2314912581
  O         5.1474791040        5.9023644133       13.7943089880
  O         3.7493050882        2.0959538706       10.4821154160
 Si         3.8675026356        4.9567468360       13.4553169685
  O         2.5066134669        5.8132053963       13.6321561589
 Si         0.5638920716        4.1584126466        9.9594525258
 Si         2.5865118434        4.6170694123        7.9512861411
  O         4.3991410792        1.2467239388        8.0760816760
 Si         4.1588060168        0.3349327609       13.8961555547
  O         3.0579389137        1.5031611404       13.9833189847
  O         0.4228435845        7.2363753816       14.2996732586
  O         3.7380806994        3.8400606461       14.6115055737
  O         7.0064174198        0.6647898746        7.9797905331
  O         5.5716768803        0.9140361850       14.3802924440
  O         0.3900939208        0.9348144283        8.5869696517
 Si         2.0335327125        7.2498950761       14.1981620091
  O         2.4002189023        6.1556747464        7.5714609369
  O        15.0414628217        5.6475428949       10.3024258820
  O         8.1418555361        0.4772377112       14.0274161425
  O        14.3665723663        3.0714337771        9.9786394554
  O         8.0626904698        5.3265890679       10.4023435321
 Si         8.8013759844        4.4157741896        9.3053008649
  O        13.8104880855        6.3116107941       12.4800028282
 Si        14.1505122755        6.2305208363       14.0368050270
 Si        13.8251306609        6.5170821093       10.9057307143
 Si        14.0746586565        1.7237326568        9.1447053921
 Si         9.6091864582        1.6059359417       10.4215329292
  O         8.9598664608        5.8219103371       12.8546568072
  O         8.9790265426        2.9889501926        9.9737249948
  O        11.1319090883        1.6794699654       10.9669135553
  O         8.7262662216        1.0779422671       11.6344165229
  O        13.4525138960        0.7264654163       10.2228751891
  O        10.2954224422        4.9870217824        9.0677603629
  O         9.4710042882        0.6584400571        9.1385704246
  O        12.4433319650        5.8933216420       10.3763706991
 Si        11.0422685803        6.2693668778        9.7004763204
 Si         8.6578635093        6.4447721955       11.3954416266
  O        10.0665744629        6.9657334309       10.7925842708
 Si         9.0089421195        6.0567150238       14.4511036835
 Si        12.2198902134        0.5106363280       11.2041060337
  O         7.9012979313        4.4050782157        7.9850185212
  O        13.1370613748        2.0823372044        7.9025905901
  O        14.5366613469        4.7517192087       14.5583277005
  O        12.7933477405        0.4157289463       12.7173301450
  O        11.3151110207        7.2403220532        8.4816959667
 Si         8.5261017852        0.1064132691        7.9594589146
  O        12.8129626402        6.6494875748       14.7929662918
  O        10.2010552304        7.0617512175       14.8016098790
  O         7.5460739238        6.6451238125       14.8030468391
 Si         8.2649045885       -0.1300308020       12.5529696686
  O         2.5105762121       14.8801787027        9.6301533083
  O         5.0785543076       14.7895230308       10.0666403752
  O         4.3245345864       14.5453039594       12.4687238050
  O         6.8752463871       14.2902406740       11.9812715413
  O         3.6601970457       14.2087790586       14.9631629232
  O         5.2257010322        7.5819571356        9.8984137922
  O         2.9217193410        8.4734055544        8.3167710787
 Si         3.3218586610       12.7277316357       14.4796907390
 Si         1.2459084864       14.5355271862        8.6680846242
 Si         5.4193420980       13.9686646184       11.3979026096
 Si         4.1825517870        8.6909301451        9.2649099281
 Si         5.6224839803       10.8316009904       13.7111048260
  O         3.5818480470        9.2967996189       10.6368593184
 Si         3.3454187518        9.4054615267       12.2330606283
  O         6.8844619421       11.1391140320       12.7135072434
  O         4.7321375252        9.6489062085       13.0432798061
  O         2.0652713755       12.8059636171       13.4587202257
  O         5.4878723391       12.3861257722       10.9740814712
 Si         6.7341445761       11.3151792390       11.0815893113
  O         2.3446356808       10.6372459981       12.2270086905
 Si         1.2575061151       11.7204405050       12.5701399283
  O         2.5810645152        8.2418561658       13.0474131293
  O         0.5023288233        7.9100266565        8.4784050760
  O         4.6547083471       12.1254091091       13.7982298458
 Si         6.7010015566        8.2731774276       10.1107205587
  O         6.4668323140        9.8372674112       10.4891755898
  O         0.5707246790       12.2924940008       11.2466488214
  O         5.1567087754        9.3918485991        8.1388142195
  O         7.3349967469        8.1471694850        8.6071399638
  O         0.3309317357       13.2141061212        8.9759051650
 Si         1.7906316874        7.6314399259        7.5759392737
  O         0.0839757677       11.0599669485       13.4603120247
  O         7.5720385066        7.6430304065       11.3074461891
  O         9.3070386336       13.6203468217       12.5589043576
 Si        14.6763101150       12.0158087418        9.9074493829
  O        13.9797128190       13.3775077237       14.0384996511
 Si        14.2780451158       11.8970500206       14.5959446743
  O         9.8180357926       11.6408610396       14.2772543455
  O        14.8795553660       10.4619382016        9.3980337276
  O        11.4739616428       14.1301278426       10.7271496467
 Si        10.4456092289       12.7219910808       13.2634778632
  O        10.4587902067       12.0594900147        9.4632294567
  O        13.1990532456        8.9739396743        8.0511500630
  O        13.0689057252       12.1384379022       10.1317665644
  O        11.2235527100       11.9672634103       12.0513762726
 Si        11.5591982098       12.5320383431       10.5601939879
 Si         8.9258992476       12.1051151467        8.8934277231
  O        11.3942536570       13.7174569064       14.1294832585
  O         8.4994208104       13.4789433255        8.1613131735
  O        13.9618423293        8.0809089497       10.4715737422
 Si        14.3974904681        8.9194876997        9.1348162538
  O         7.9850756799       11.8799141500       10.2136685147
 Si        12.8151644642       14.4928096513       14.0769008335
  O         8.7261728753       11.0599279102        7.6573481421
