216
14.835 14.835 14.835
  O         4.4602124316        3.7043385853        1.5878165117
  O         1.8255251901        4.0341056881        5.6902209368
 Si         4.6549921293        3.8712872128        3.1636395396
  O         4.8016586060        5.4802754945        3.3732994078
  O         5.9403281369        3.0376054710        3.7247511060
 Si         2.3317614698        5.5229959345        6.1272163966
  O         3.2971891151        3.2893875587        3.7957753698
  O         3.1159016303        1.4933114732        5.6891418714
  O         0.9878572856        1.8964466408        4.3583426348
 Si         2.2976559137        2.6731473623        4.9026724443
  O         3.9572257855        5.4363475082        6.3395234426
 Si         5.4961996332        6.7872610081        2.6946719097
 Si         4.3274265016        1.3768949389        6.7548258547
  O         5.5312315263        2.2359839036        6.1786486161
 Si         6.6808587723        2.5774462968        5.1185062416
  O         7.0866503041        6.5810868763        2.7226055306
 Si         0.3184289936        0.4981150660        3.8459608376
  O         1.7402609924        6.7496128941        5.1999923214
  O         6.4178281071        6.2421940693        6.6000719806
 Si         3.9267760216        2.9576519515        0.2870554038
 Si         5.7469703794        0.3876043758        0.3907740468
  O         4.9389495607        7.0243880517        1.1771230484
  O         6.7673153656        0.4033117377        1.6489657817
  O         2.4648066293        2.2989087552        0.3388529526
  O         4.9490583952        1.7410832658        0.0783551053
  O         7.3377157649        3.8680892917        5.7505396756
  O         0.4087676212        0.4102589260        2.2294130277
  O         5.0354693738       -0.0805731403        7.0062557293
 Si         0.1590489926        6.2958501489        0.1478508179
  O         0.0013970389        2.9728021295        0.2496678164
  O        12.6017935414        5.6865766542        7.0909595395
 Si         7.6932125186        5.2925814870        6.3227187347
  O         7.8162882334        1.3982141986        5.0973843866
  O         8.4832558781        6.0113818789        5.1120060970
  O         9.2309465774        2.7968672195        3.7116529716
  O         9.0629559146        5.1275304236        2.6399353595
  O        13.1903082199        5.1897814143        4.6103283087
  O        13.7702271177        3.3738714887        2.7198524995
 Si        13.7715234909        3.7414319497        1.1401114740
  O        12.6114521973        2.6894433194        5.0336395270
 Si         8.4523263840        6.3151458447        3.5060431951
 Si        12.7692997978        3.8241630031        3.9075175699
 Si        12.7542647954        6.3466297948        5.6336620722
 Si        12.3061539695        1.1071372311        5.1620443718
 Si         9.2201316488        1.2880610128        4.2445134249
  O        11.3726874165        4.1259942123        3.1957005134
  O        10.7383785317        0.9095335533        4.7135469340
 Si         9.9048737920        3.7975066275        2.6852679311
  O         9.8805718145        3.1282006282        1.2411020374
  O        12.2923587798        0.5683876226        6.6811514807
  O        14.0133037350        7.3400958370        5.6036594898
  O        13.5885246583        0.4155159585        4.3670699360
  O        14.0847958205        5.3264825095        1.0654840088
  O         8.9776262663        0.1776628254        3.1372100577
  O        12.3714889192        3.2996251362        0.4989320750
  O        11.3768367830        7.0915338641        5.2074296936
  O         0.7501415570        7.5730649822        0.9003495714
  O         3.4639450489        8.9846437415        0.0908775488
  O         2.1366752900       13.7591834045        0.8257417696
  O         5.0983054223       11.1294305314        6.9181155321
 Si         0.5406393492        7.8235526237        4.8869710582
  O         5.3476948717        8.0848323158        3.6349335337
 Si         3.6979257300       10.8987160030        6.1734629005
  O         1.2384087862       14.0965108508        4.3728236743
 Si         0.6779169670       14.4321987133        0.8545900772
  O         1.5644053125        9.8958287748        1.6538004633
 Si         3.1005267525       10.0863629313        1.2088672288
  O         2.8850575344       12.2010279295        5.5967436997
 Si         1.4546110596       12.9943396485        5.5326548688
 Si         5.0757649535        9.6719000339        3.6242652937
  O         4.0404304210        9.8876872697        2.4570422194
  O         4.2083265017        9.9835441237        4.9469124353
  O         6.4315556988       10.5583764218        3.2986155843
 Si         0.4216277155        8.7842984435        1.8999882568
  O         0.4824852943        7.9961125932        3.2994702459
  O         3.4582084505       11.5652480645        0.7419512846
  O         0.2521928738       11.9441313574        5.2734467035
  O         4.7048713763       14.0007299648        0.5775894762
  O         1.3036237067       13.7703739150        6.9343077443
  O         0.6488295433        9.3736437515        5.3691319509
 Si         3.4399272458       13.0639199766        0.1937681520
  O         0.0795814215       10.6381351953        7.5048506332
  O         2.7091171568       10.2203743400        7.2655324446
  O         9.4091928155        7.5937881778        3.4549824181
  O         9.0712642152       10.8731230681        3.0628410357
  O         9.3213054456        8.8210467628        5.7716157173
 Si        12.5266555872       10.1813506596        1.0376875029
 Si        11.7057983300       11.5065841076        5.9504886105
 Si        10.6502233932       10.7998943363        3.3706527743
  O         7.5805377622       12.9578583395        2.5623017102
  O         7.7425381699       10.3898341345        7.2600941825
  O        11.5407652601       10.9613475111        2.0549652806
  O        12.9477165965       10.4570344678        5.7696683450
  O        12.8516421413       11.3712598054       -0.0044620415
  O        13.8462215897        9.5572772812        1.7286154594
  O        11.1175721351        9.3797356829        3.9675668540
 Si         9.2655080595        9.8374360871        7.0346800593
  O        14.3353655921       13.3568546093        0.6565688005
  O        12.4445634657       12.7807303772        6.5881775222
  O        11.7968772160        8.9120566771        0.3298289503
  O        10.4567465078       10.9506900184        6.8383772226
 Si         7.6305161774       11.3468012555        2.4995037558
  O         7.5740778685       11.1309718924        0.9056502615
  O         9.1723425170       14.3438642847        0.7241826157
 Si         8.1104156192       14.3715438278        1.9701139320
 Si        10.3114038494        8.1778994469        4.6529879271
 Si        14.5521785591       10.5768501702        5.9363308397
  O        11.7753300419       13.9246213058        0.2426115049
  O        11.0572278155       11.8756650748        4.5104420092
  O         2.2972408301        2.8911366263       10.2262345590
 Si         5.9833374652        5.2452182624       10.1605377910
  O         6.2463110794        3.8264671394       10.9085365462
  O         4.8459798551        6.2737068312       10.7054738571
  O         2.3079591834        4.8571207171       12.0339896358
  O         1.3160642605        2.5565816686       12.7683322305
 Si         1.5205164157        3.5440376636       11.4867589367
 Si         2.6510029340        1.6445734722        9.2703826402
 Si         2.7372084964        5.2640198295       13.5443422493
  O         3.4583008273        6.6685681258       13.7607104087
  O         3.6946062739        2.0460741510        8.0903512092
  O         1.3252790741        0.9115319513        8.6595345586
  O         3.4545829150        0.6525601221       10.2154990446
  O         5.5357950255        4.8792788774        8.6286720031
 Si         1.1084854700        2.1261800832       14.3172586768
 Si         1.3594093103        6.8704475595        8.7324085029
 Si         6.9807045632        0.5328935848       12.4428369438
  O         3.7885310896        4.1161293387       14.0080126601
  O         1.3537737510        5.3647987104       14.4029764176
  O         5.5416809700        0.6425112116       11.7248358708
  O         6.7625089038        0.2421664154       13.9967712262
  O         2.4693151015        6.9162237144        9.8918462216
  O         0.0862013016        3.9590225833       10.8709901254
  O         0.6547484391        0.5892738278       14.4138394317
  O         0.0178059691        6.1897505818        9.2183236272
  O         7.3362334008        6.0977773643       10.3883579621
  O         4.5257433252        7.1759115199        8.2374331152
  O         1.8119311857        5.8542841672        7.5896912366
 Si         5.0747634444        5.9017741166        7.4219776609
 Si         4.0135677238        7.3231035656        9.7751313052
  O         7.7387366852        1.9774770421       12.1876430930
  O         7.3449704658        1.6568636492        9.7221508479
 Si         7.5294893194        2.8360775299       10.8085402455
  O        14.0138697718        7.0003644418       13.9373412580
  O        10.7262273698        4.3710799714        8.4077090338
  O        14.0922292165        6.2658605351       11.5478402581
 Si        14.1713691654        5.2685902209       10.3230213859
  O         8.7410048042        3.7106354928       10.1330236091
 Si        11.8521949363        5.4970011920        8.5005201399
  O        12.7795050267        4.8666128270        9.6536586622
  O         9.3062967636        5.6763413596       12.1810991810
  O        11.8030771630        6.3410139693       12.6727273397
 Si        10.4303145849        5.8026655514       13.3207535990
 Si         9.2467500922        3.8375255634        8.5745940330
 Si         8.5534898786        1.0561032753        8.8142573944
  O        10.5506801400        4.2807406053       13.8533513844
 Si         8.4132915632        6.7518491969       11.3877637443
 Si        13.2242627958        7.0902328420       12.5711225863
  O        11.2839967750        6.9471905842        8.9046355320
  O         9.2184665181        2.3103781694        8.0131072344
  O         9.6435658349        0.3246643743        9.8042931695
  O        10.7158322268        1.4818815185       14.3480598395
  O        10.0704480541        7.0284799081       14.3579239999
 Si        10.8811392387        3.0270799263       14.8324139820
  O         7.7414029769        0.1673581845        7.7510223837
  O         8.4057237775        4.9501738686        7.7365920766
 Si         4.7586137140       14.6651432479       10.5826765812
  O         5.7683405303       14.3439499361        9.3973028465
  O         5.5171356200        8.0743379115       13.6141579385
  O         4.1219084228        8.8951890439       10.0517600684
  O         4.3024354373       10.8787699717       11.6223286777
 Si         5.1599681648       10.0315067135       10.5336533351
  O         6.3194498836        9.2225868391       11.2831049603
  O         4.2033461498       13.2607875010       11.0404304887
  O         1.8931003995       12.0345185571       11.6936760693
 Si         0.9497840168       11.9924472666       10.3956147298
 Si         3.4657196138       12.2212735495       11.9775406061
 Si         6.6749380357        8.7372205295       12.7614282944
 Si         1.3849504278        9.9613029746        8.1704909590
  O         3.4801533459       12.8571745271       13.4414320732
  O         5.9269263889       10.7934401442        9.3167420162
  O         1.1491894598        8.3755428824        8.2288046449
  O         1.2431646066       13.2727105178        9.4711140591
  O         1.4034830088       10.6328136588        9.6362228373
 Si         0.7060367608       14.2753182069        8.3388971643
 Si         6.3146588070       14.2329505945        7.9053779249
 Si         6.4223235113       11.1949982939        7.8137818186
  O         7.1535120651       10.0493755735       13.5066265384
 Si         4.3561450246        7.6764260064       14.6309144087
  O         6.8262780876       12.7381570340        7.6693533661
  O         7.8217297424        7.6425418016       12.5899320382
  O         9.3203984440        7.6659120620       10.4679854104
 Si        10.6427662970       13.8608362396       10.0398731243
 Si         9.0544443449       13.1634377035       12.3502978313
  O        11.3819516353        9.2329687046       10.2238056987
 Si        10.4323830087       14.7168956600       14.5793756842
 Si        13.0294284236       12.9702573558       14.6309856924
  O         9.3770892409        9.6484022277       14.8321803470
 Si        10.4248858898        8.1901236368        9.4593163546
  O         9.7139228187       12.7898773627       10.8882805404
 Si         8.2858098842       10.7385027335       14.3638451317
  O        13.2813089848       13.1800860165       13.0525269931
 Si        12.9130740408       12.5314062347       11.6289518205
  O        14.2363161940       12.1079772159       10.8048063554
  O        12.1121391231       11.1377097428       11.8614248711
 Si        11.8397215536        9.5627574787       11.7302035573
 Si        12.4875515284       14.0604132723        7.5617130524
  O        12.0359605696       13.6826178794       10.8800615838
  O        13.9176275987       14.2501969693        8.3136212090
  O         8.8228014115       11.9518599152       13.4159020785
  O        10.0606752182       14.1757473617       13.1028750531
  O        10.6982312992        9.0716434058       12.7573696290
 Si        10.4714495903        8.6115196740       14.2890882222
  O         9.6470511105        8.9806471322        8.3218891017
  O        11.2304753294       13.7535340292        8.5351197642
  O        13.1108388923        8.6393919613       12.1166903701
  O         7.7420771811       14.0222370356       11.9492940757
