216
14.949 14.949 14.949
  O         3.0833124636        2.2484568212        4.2479104333
 Si         4.4900333298        5.2237831852        2.8340073037
  O         5.0608696826        6.0593347854        1.5888182442
  O         4.3944518559        3.6461693011        2.4894133887
  O         3.5821147917        4.0693965558        6.2216340517
 Si         3.0352465448        2.5867958766        5.8293162172
  O         5.4825260863        5.5640339009        4.0649203548
 Si         3.2672555767        2.4825753502        2.6454448252
  O         3.8223604765        1.1570617371        1.9039856970
  O         1.8286387145        2.9258594385        1.9988342431
  O         6.3165573751        1.2514885989        5.7366074794
  O         3.9115889040        1.5567733437        6.7145603963
  O         2.9697120138        5.6564110815        3.0908448634
 Si         0.6884615717        6.5129277984        6.0202361749
  O         1.5022082534        2.5724992570        6.3106174712
 Si         1.6694971469        6.5851180374        3.0287259953
 Si         0.6072204350        2.2951955868        1.1360357841
 Si         6.9415466498        5.3195740528        4.7283625416
  O         1.5613347414        5.4855402687        6.8843216486
 Si         5.1062023966        0.4922128731        6.4747595158
  O         0.4831145199        5.8815327465        2.1487438045
  O         1.2509837316        6.8798338742        4.5553334690
 Si         6.1900130371        7.0767949969        1.0727523466
  O         6.8834726442        3.7629916886        5.2235052630
 Si         0.2222452085        2.2456730368        7.2115126341
  O         7.2085840394        6.6209660595        5.7195708391
 Si         2.9398676771        4.9072650853        7.4474061016
  O         1.3311690639        1.4206841379       -0.0062865723
  O         7.6454905014        6.7175336786        1.6629627441
 Si         7.4786829256        2.2452066987        5.2290617845
  O        14.6966403908        1.3302810970        2.0925497667
  O         8.0611829166        1.4982958228        3.9004865569
  O         8.1575256299        5.2494285350        3.6649799523
  O        14.2001516814        5.8133273474        5.8098903418
  O         8.7102841874        2.4053238200        6.2236487206
  O        10.1349777958        5.8122450475        1.9913638879
  O         8.2996453710        4.0678244691        1.3292976427
  O        12.7134641742        5.5654346765        1.1682182794
 Si        13.0719901532        5.5077070524        4.6889094152
 Si        12.7186338867        2.5385124740        5.2237886850
  O        12.9540372032        3.9185965599        4.4053288575
  O         8.9569266555        1.4286011710        1.5002941336
  O        11.6439557284        5.8823822283        5.3168764195
  O        12.8667689551        1.3463958269        4.1687772287
 Si         9.0097269642        0.6355522142        2.9002182049
 Si         8.5652141054        5.4612913449        2.1304598980
  O        13.3644682117        6.4706711224        3.4117565456
  O        11.2994332535        2.3211990410        5.9787755662
 Si        11.2363103152        6.1811648552        0.8609451163
 Si        13.9126277272        6.4056508843        1.8783301660
 Si         8.9638439980        2.7670269352        0.6177214996
  O        13.8641999026        2.4112727215        6.3186112660
 Si        10.0767785253        2.4731362853        7.0185214895
  O        10.5557527038        0.5862071001        3.3278626213
  O        14.4392789839        3.1714645524        0.3538978943
  O         9.6338852375        7.3143884588        5.9012274395
 Si        11.2171694874        7.3246046279        5.8512030720
 Si        12.0192518459        0.0732517898        3.7103176974
 Si         3.9777037070       14.6638165536        1.1599613435
  O         0.6586231893        9.6288598219        0.6633598157
  O         1.9883974734        7.9893131529        2.3076163062
  O         3.1657166737       12.2965036212        6.8923602342
  O         4.4812307482       14.2800279315        5.5694574027
  O         5.7332764159        8.6117179782        1.3313994161
  O         2.2714509062       13.2137008457        4.6540245663
  O         4.5681783305       12.0356827964        4.4658852842
 Si         3.6315519851       12.9244822776        5.4500521371
  O         4.7175867813       10.8811828426        2.1800914282
  O         4.2138087758       13.5543034681        2.3019963385
 Si         4.9823403008       12.2831390015        2.9087122675
  O         6.4892783315       12.6927405961        2.5853242997
 Si         0.7349775303       13.3440659494        4.2962741957
 Si         4.7902000565        9.8818710256        0.9466534357
 Si         1.9402485456        8.6273276277        0.8210568481
  O         3.2942115154        9.4445464717        0.5746051308
  O         0.6618966546        7.8572572841        6.9013706194
  O         0.5722180038       13.9444337771        2.8365816928
 Si         0.1868722249        9.3776681352        7.0318717416
  O        -0.0102203960       14.3753244929        5.2982886541
  O         2.5841642179       14.1980015709        0.5065273142
  O        -0.1597190459       14.2733057347        0.4751026820
  O         1.4163006542       10.4182604099        7.0471450880
  O         0.0750677325       11.8714026851        4.3268075681
  O        10.3867990412       10.5361210461        4.9831616116
 Si        12.2151002119       13.2287241064        6.2968513217
  O        11.8687202660        7.6236579354        7.2851580465
 Si        14.3911303639       14.7026279243        1.9847876017
 Si         8.1663502750        7.8770675606        6.1824897787
 Si        14.7613975155       14.3116868533        6.9086143866
  O        11.3022925077        7.7547243514        0.6902109216
  O        11.7901511757        8.3912080335        4.8120555222
  O         8.6321869806       14.0219724020        2.7423170177
  O         8.0440560402        9.2925933428        5.3351163528
  O        14.0363193981        7.7153042777        0.9186737388
  O        12.7894649300       10.5639134700        3.8130094873
 Si        14.0946978553        9.1953912047        0.2118379922
 Si        13.8184842849       11.0248081565        4.9527236953
  O         8.5612846055       11.7075071882        6.3910935792
  O         8.3874601434       11.4714026446        3.7262773215
  O        12.8836080735       14.3731653825        2.4849330583
 Si        11.4298271075        9.7423629250        4.0463043373
  O         9.9696369032        9.8816445842        0.2450690899
  O        10.8046614525        9.4768229794        2.5999204587
  O         8.5538399514       11.9511854609        1.0727144528
  O        10.8802798480       12.8670670190        7.0581246108
  O        11.8745439219       13.9470861299        4.8978150744
  O        13.1862554234       14.1384774039        7.2194297875
 Si         8.0662208139       12.5195782074        2.5229989592
 Si         8.7877161901       10.7379689047        5.1049360767
  O        12.7106035673        9.8923190783        0.7433050390
  O        14.2885320367        9.7066301724        5.7191129297
  O        13.0386102710       11.8801052362        6.0560001244
 Si        11.2175981862        9.2987119295        1.0576495712
 Si         9.3911858916       12.5277370462        7.5157634077
 Si         4.2163611716        6.5435844748        9.5126919333
  O         4.0675658396        2.7366769412       10.7995789318
  O         3.7367813753        5.3875014990       10.5430201600
 Si         3.1110054988        3.9189312678       10.2975382355
  O         1.8188188203        3.7342430832       11.2162503302
 Si         3.9567066687        1.1765542856       11.2105713276
  O         2.7526782984        3.9000213945        8.7153153306
  O         1.4922369958        5.9785172949       12.4556133392
 Si         0.7097461063        4.7295638992       11.8092401574
  O         4.5473763767        0.8363301911       12.6821471851
  O         5.8379331450        6.4837716158        9.5540404093
  O         6.3853453385        6.3895280764       12.0238781942
 Si         7.0679663069        6.2128895936       10.5985473468
  O         4.9051130846        0.4894816740       10.1326782085
 Si         2.4232701856        7.0642620702       13.1998142615
  O         4.0131295420        6.7381611150       13.2049043721
  O         3.8239275666        6.1478281393        7.9883676294
  O         6.3170700654        6.8048279680       14.4648428752
 Si         5.5693540916        7.1914489138       13.1216474979
  O         7.1319181868        0.4960066827       13.1253321187
  O         2.4159692314        0.6585562726       11.1371229004
  O         0.3341829597        0.6835147704        7.6482391735
  O         7.4955941561        0.4204553979        9.4745032590
  O        14.8759690011        4.0809047672       13.0191386773
  O        15.0295848435        3.2378063280        8.4674676973
  O        14.6200137851        4.8975647187       10.5494989577
  O         7.8833857562        4.8142773133       10.7117074655
 Si        10.8694575126        4.1291452006       13.8733581055
 Si        13.8585648038        3.1325161213       13.7863863116
  O        13.8727425580        1.6476457890       13.1301771200
  O        14.0242935032        2.3288435192       10.6371883284
  O         8.2216127176        2.4116250870       11.5677958857
 Si        14.0528604842        3.6202663577        9.6915612596
  O        12.5730343903        3.9059889398        9.1311166336
  O        10.9656403445        5.9548347255        9.2091594227
 Si        11.0319139822        4.3579110529        9.0954900734
  O        10.2150951442        3.6530927414       10.2821086263
 Si         8.9935775140        3.8090080152       11.3131731733
  O         9.7908893317        4.1446811044       12.6857192547
 Si         8.3655827920        1.4713851129       12.8818639977
 Si        13.6877352492        1.0989426306       11.6065476971
  O        12.3817542963        3.7309372816       13.5332858896
  O         9.7712186374        0.6653423630       12.6339304327
  O        12.1476613667        0.6728840697       11.3794712749
  O         8.2306482582        2.4082767330       14.1916224507
  O        10.7949087611        5.6472524342       14.3734311061
  O        10.3072655757        3.9017065570        7.7291923022
  O         9.8758927340        1.3288532611        8.1492149350
 Si        11.5723004149        7.3999234149        8.8506752977
  O         8.2213281944        7.2461793367       10.2112608136
 Si         9.0077871164        0.1770265682        8.8980101798
  O        10.4657944881        3.1593513508       15.1117000565
  O        14.7790130393       -0.0726423710       11.2861386973
 Si         5.6609772466       14.8507071586       13.3970478426
  O         5.1515093914       14.6990622966       14.9450157928
  O         5.6365579477       14.7012356057        7.7966413925
  O         1.9074856991        7.3953963166       14.6961763544
 Si         6.0374871212       14.6455437596        9.3435688364
  O         5.3955168678       10.6398888118       14.6112553947
  O         1.3285860165       14.3721206685       13.2721943307
 Si         1.7526373446       11.8885105099        7.6155117939
  O         3.4102514299        7.8955929379        9.9665743056
  O         2.2410158220        8.3767524731       12.3163998310
 Si         1.3620489290       14.5010511062       11.6938202169
  O         0.7479908358        8.3030668476       10.1342503201
 Si         6.2633117984       10.2568484289       13.3049676534
  O         1.9135263905       13.0432832795       11.2848164884
  O         1.5554046339       11.7969912546        9.1886784606
 Si         2.2153401757        8.7012009542       10.7534729974
 Si         1.4540887446       11.5935046643       10.7787665683
  O         5.8886541676       13.4468157083       12.6149998100
  O         5.9182315701       11.0733794711       11.9486077207
 Si         6.4409466107       12.5099979127       11.4097174763
  O         2.4156568963       10.2983311377       10.8723236508
  O         5.9821846562       13.1324495809        9.9722795069
  O         5.8188896197        8.7647348422       12.8834587313
 Si         1.2522977758       14.7714738026       14.7794438995
  O         0.6669034742       13.0250331613        7.2904689092
  O        15.0343264372       11.2912441204       11.6321906809
  O         8.2330346235        9.8036013690        9.9688143837
  O        14.1171641005        9.4698827293       13.5415864776
  O         7.8066632630       10.5451262767       13.7904271367
  O         8.0383223613       12.2771981666       11.1281276083
  O         9.9542546036       14.7110313163       10.1334202742
  O        14.2806762193        9.5503807884        8.3948780603
 Si        10.9713719514       11.8674909158       12.4410992761
  O        10.2318774960       10.9685093378       11.3093930531
  O        10.0504529923       11.9560647965       13.7780262607
 Si         8.7236823759        8.4299580036        9.2560950488
 Si        14.1486556417        8.6918258379        9.7642552494
  O        12.4730056263       11.2847682640       12.6291790830
  O         9.4682478379       11.7178046254        8.8924754478
  O        11.1268605248       13.3796608200       11.9666030928
  O         8.7176717516       13.9538118681        7.8126252830
  O        10.3541267734        8.4111098297        9.2201439839
  O        13.4531657560        9.4737545385       10.9786968138
  O        13.0283385556        7.5442942675        9.5416215793
 Si        10.7307895938       14.8632650779       11.5401437186
  O         8.0650775874        8.2273102631        7.7713872944
 Si         9.0393883074       11.1027786293       14.7110512551
 Si         8.9721084080       11.2018476237       10.3323199302
 Si        13.7827330296       10.4119824589       12.2400377668
